<?xml version="1.0" encoding="UTF-8"?>

<!-- generated on 09/21/20 18:16:13 by Eclipse SUMO netedit Version 1.6.0
<configuration xmlns:xsi="http://www.w3.org/2001/XMLSchema-instance" xsi:noNamespaceSchemaLocation="http://sumo.dlr.de/xsd/netconvertConfiguration.xsd">

    <input>
        <sumo-net-file value="C:\Users\Jon\Sumo\braddock.net.xml"/>
    </input>

    <output>
        <output-file value="C:\Users\Jon\Sumo\braddock.net.xml"/>
    </output>

    <processing>
        <geometry.min-radius.fix.railways value="false"/>
        <geometry.max-grade.fix value="false"/>
        <offset.disable-normalization value="true"/>
        <lefthand value="false"/>
    </processing>

    <junctions>
        <no-turnarounds value="true"/>
        <junctions.corner-detail value="5"/>
        <junctions.limit-turn-speed value="5.5"/>
        <rectangular-lane-cut value="false"/>
    </junctions>

    <pedestrian>
        <walkingareas value="false"/>
    </pedestrian>

    <netedit>
        <route-files value="C:\Users\Jon\Sumo\braddock.rou.xml"/>
    </netedit>

    <report>
        <aggregate-warnings value="5"/>
    </report>

</configuration>
-->
<routes>
<flow id="type1" color="1,1,0"  begin="0" end= "7200" period="2">
    <route edges="171719521#0 171719521#2 171719498#0 171719498#1 171719506#0 171719506#1 171719506#2 171719506#3 590855742#0 590855742#1 590855742#2 590855742#3 590855738#0 590855738#1 590855738#2" color="yellow" id="route_0"/>
</flow>
<flow id="type2" color="1,1,0"  begin="0" end= "7200" period="4">
    <route edges="590855737#0 590855737#1 590855737#2 590855741#0 590855741#1 590855741#2 590855741#3 590855741#4 144267617#0 144267617#1 144267617#2 144267617#3 144267617#4 171719519#1 171719519#2 171719519#3 171719519#4 171719519#5 171719519#6 171719502#0" color="yellow" id="route_1"/>
</flow>
</routes>

