<?xml version="1.0" encoding="UTF-8"?>

<!-- generated on 09/25/20 20:34:39 by Eclipse SUMO netedit Version 1.7.0
<configuration xmlns:xsi="http://www.w3.org/2001/XMLSchema-instance" xsi:noNamespaceSchemaLocation="http://sumo.dlr.de/xsd/netconvertConfiguration.xsd">

    <input>
        <sumo-net-file value="C:\Users\anike\Desktop\Education\George%20Mason%20University\Sem%204-Fall%20-%202020\CS%20695%20-%20Connected%20Autonomous%20Vehicles\Projects\1st%20mini%20project\braddock.sumo\braddock.net.xml"/>
    </input>

    <output>
        <output-file value="C:\Users\anike\Desktop\Education\George%20Mason%20University\Sem%204-Fall%20-%202020\CS%20695%20-%20Connected%20Autonomous%20Vehicles\Projects\1st%20mini%20project\braddock.sumo\braddock.net.xml"/>
    </output>

    <processing>
        <geometry.min-radius.fix.railways value="false"/>
        <geometry.max-grade.fix value="false"/>
        <offset.disable-normalization value="true"/>
        <lefthand value="false"/>
    </processing>

    <junctions>
        <no-turnarounds value="true"/>
        <junctions.corner-detail value="5"/>
        <junctions.limit-turn-speed value="5.5"/>
        <rectangular-lane-cut value="false"/>
    </junctions>

    <pedestrian>
        <walkingareas value="false"/>
    </pedestrian>

    <report>
        <aggregate-warnings value="5"/>
    </report>

</configuration>
-->

<net version="1.6" junctionCornerDetail="5" limitTurnSpeed="5.50" xmlns:xsi="http://www.w3.org/2001/XMLSchema-instance" xsi:noNamespaceSchemaLocation="http://sumo.dlr.de/xsd/net_file.xsd">

    <location netOffset="-299435.73,-4297404.12" convBoundary="0.00,0.00,6975.91,3345.57" origBoundary="-77.310367,38.803763,-77.229740,38.833560" projParameter="+proj=utm +zone=18 +ellps=WGS84 +datum=WGS84 +units=m +no_defs"/>

    <type id="highway.bridleway" priority="1" numLanes="1" speed="2.78" allow="pedestrian" oneway="1" width="2.00"/>
    <type id="highway.bus_guideway" priority="1" numLanes="1" speed="27.78" allow="bus" oneway="1"/>
    <type id="highway.cycleway" priority="1" numLanes="1" speed="8.33" allow="bicycle" oneway="0" width="1.00"/>
    <type id="highway.footway" priority="1" numLanes="1" speed="2.78" allow="pedestrian" oneway="1" width="2.00"/>
    <type id="highway.ford" priority="1" numLanes="1" speed="2.78" allow="army" oneway="0"/>
    <type id="highway.living_street" priority="2" numLanes="1" speed="2.78" disallow="tram rail_urban rail rail_electric rail_fast ship" oneway="0"/>
    <type id="highway.motorway" priority="14" numLanes="2" speed="39.44" allow="private emergency authority army vip passenger hov taxi bus coach delivery truck trailer motorcycle evehicle custom1 custom2" oneway="1"/>
    <type id="highway.motorway_link" priority="9" numLanes="1" speed="22.22" allow="private emergency authority army vip passenger hov taxi bus coach delivery truck trailer motorcycle evehicle custom1 custom2" oneway="1"/>
    <type id="highway.path" priority="1" numLanes="1" speed="2.78" allow="pedestrian bicycle" oneway="1" width="2.00"/>
    <type id="highway.pedestrian" priority="1" numLanes="1" speed="2.78" allow="pedestrian" oneway="1" width="2.00"/>
    <type id="highway.primary" priority="12" numLanes="2" speed="27.78" disallow="tram rail_urban rail rail_electric rail_fast ship" oneway="0"/>
    <type id="highway.primary_link" priority="7" numLanes="1" speed="22.22" disallow="tram rail_urban rail rail_electric rail_fast ship" oneway="0"/>
    <type id="highway.raceway" priority="15" numLanes="2" speed="83.33" allow="vip" oneway="0"/>
    <type id="highway.residential" priority="3" numLanes="1" speed="13.89" disallow="tram rail_urban rail rail_electric rail_fast ship" oneway="0"/>
    <type id="highway.secondary" priority="11" numLanes="1" speed="27.78" disallow="tram rail_urban rail rail_electric rail_fast ship" oneway="0"/>
    <type id="highway.secondary_link" priority="6" numLanes="1" speed="22.22" disallow="tram rail_urban rail rail_electric rail_fast ship" oneway="0"/>
    <type id="highway.service" priority="1" numLanes="1" speed="5.56" allow="pedestrian delivery bicycle" oneway="0"/>
    <type id="highway.stairs" priority="1" numLanes="1" speed="1.39" allow="pedestrian" oneway="1" width="2.00"/>
    <type id="highway.step" priority="1" numLanes="1" speed="1.39" allow="pedestrian" oneway="1" width="2.00"/>
    <type id="highway.steps" priority="1" numLanes="1" speed="1.39" allow="pedestrian" oneway="1" width="2.00"/>
    <type id="highway.tertiary" priority="10" numLanes="1" speed="22.22" disallow="tram rail_urban rail rail_electric rail_fast ship" oneway="0"/>
    <type id="highway.tertiary_link" priority="5" numLanes="1" speed="22.22" disallow="tram rail_urban rail rail_electric rail_fast ship" oneway="0"/>
    <type id="highway.track" priority="1" numLanes="1" speed="5.56" disallow="tram rail_urban rail rail_electric rail_fast ship" oneway="0"/>
    <type id="highway.trunk" priority="13" numLanes="2" speed="27.78" disallow="pedestrian bicycle tram rail_urban rail rail_electric rail_fast ship" oneway="0"/>
    <type id="highway.trunk_link" priority="8" numLanes="1" speed="22.22" disallow="pedestrian bicycle tram rail_urban rail rail_electric rail_fast ship" oneway="0"/>
    <type id="highway.unclassified" priority="4" numLanes="1" speed="13.89" disallow="tram rail_urban rail rail_electric rail_fast ship" oneway="0"/>
    <type id="highway.unsurfaced" priority="1" numLanes="1" speed="8.33" disallow="tram rail_urban rail rail_electric rail_fast ship" oneway="0"/>
    <type id="railway.highspeed" priority="21" numLanes="1" speed="69.44" allow="rail_fast" oneway="1"/>
    <type id="railway.light_rail" priority="19" numLanes="1" speed="27.78" allow="rail_urban" oneway="1"/>
    <type id="railway.preserved" priority="16" numLanes="1" speed="27.78" allow="rail" oneway="1"/>
    <type id="railway.rail" priority="20" numLanes="1" speed="44.44" allow="rail" oneway="1"/>
    <type id="railway.subway" priority="18" numLanes="1" speed="27.78" allow="rail_urban" oneway="1"/>
    <type id="railway.tram" priority="17" numLanes="1" speed="13.89" allow="tram" oneway="1"/>

    <edge id=":1259934471_0" function="internal">
        <lane id=":1259934471_0_0" index="0" allow="pedestrian delivery bicycle" speed="5.56" length="9.60" shape="4843.78,727.89 4840.23,718.97"/>
    </edge>
    <edge id=":1259934471_1" function="internal">
        <lane id=":1259934471_1_0" index="0" allow="pedestrian delivery bicycle" speed="5.56" length="12.02" shape="4843.78,727.89 4843.02,724.50 4843.65,722.05 4845.68,720.53 4849.11,719.95"/>
    </edge>
    <edge id=":1259934471_2" function="internal">
        <lane id=":1259934471_2_0" index="0" allow="pedestrian delivery bicycle" speed="3.65" length="4.67" shape="4843.78,727.89 4844.10,726.49 4844.71,725.83 4845.60,725.92 4846.77,726.76"/>
    </edge>
    <edge id=":1259934471_3" function="internal">
        <lane id=":1259934471_3_0" index="0" allow="pedestrian delivery bicycle" speed="4.76" length="5.46" shape="4849.19,723.15 4847.64,723.41 4846.71,724.10 4846.42,725.22 4846.77,726.76"/>
    </edge>
    <edge id=":1259934471_4" function="internal">
        <lane id=":1259934471_4_0" index="0" allow="pedestrian delivery bicycle" speed="5.56" length="10.51" shape="4849.19,723.15 4845.98,722.96 4843.41,722.20 4841.50,720.87 4840.23,718.97"/>
    </edge>
    <edge id=":1259934471_5" function="internal">
        <lane id=":1259934471_5_0" index="0" allow="pedestrian delivery bicycle" speed="3.65" length="4.67" shape="4849.19,723.15 4847.97,722.38 4847.55,721.59 4847.93,720.78 4849.11,719.95"/>
    </edge>
    <edge id=":1259934471_6" function="internal">
        <lane id=":1259934471_6_0" index="0" allow="pedestrian delivery bicycle" speed="5.56" length="6.70" shape="4843.17,717.71 4843.93,718.74 4845.17,719.46 4846.89,719.86 4849.11,719.95"/>
    </edge>
    <edge id=":1259934471_7" function="internal">
        <lane id=":1259934471_7_0" index="0" allow="pedestrian delivery bicycle" speed="5.56" length="9.74" shape="4843.17,717.71 4846.77,726.76"/>
    </edge>
    <edge id=":1259934471_8" function="internal">
        <lane id=":1259934471_8_0" index="0" allow="pedestrian delivery bicycle" speed="3.65" length="4.67" shape="4843.17,717.71 4842.91,719.12 4842.33,719.81 4841.44,719.75 4840.23,718.97"/>
    </edge>
    <edge id=":1259934476_0" function="internal">
        <lane id=":1259934476_0_0" index="0" allow="pedestrian delivery bicycle" speed="5.56" length="9.40" shape="4701.65,731.08 4692.25,731.48"/>
    </edge>
    <edge id=":1259934476_1" function="internal">
        <lane id=":1259934476_1_0" index="0" allow="pedestrian delivery bicycle" speed="5.56" length="10.17" shape="4701.65,731.08 4698.91,730.80 4696.90,729.70 4695.61,727.77 4695.05,725.02"/>
    </edge>
    <edge id=":1259934476_2" function="internal">
        <lane id=":1259934476_2_0" index="0" allow="pedestrian delivery bicycle" speed="3.65" length="4.67" shape="4701.65,731.08 4700.41,730.33 4699.98,729.55 4700.34,728.73 4701.51,727.88"/>
    </edge>
    <edge id=":1259934476_3" function="internal">
        <lane id=":1259934476_3_0" index="0" allow="pedestrian delivery bicycle" speed="5.11" length="5.09" shape="4698.24,724.82 4698.52,726.21 4699.16,727.18 4700.16,727.74 4701.51,727.88"/>
    </edge>
    <edge id=":1259934476_4" function="internal">
        <lane id=":1259934476_4_0" index="0" allow="pedestrian delivery bicycle" speed="5.56" length="10.27" shape="4698.24,724.82 4698.02,727.63 4696.95,729.68 4695.03,730.96 4692.25,731.48"/>
    </edge>
    <edge id=":1259934476_5" function="internal">
        <lane id=":1259934476_5_0" index="0" allow="pedestrian delivery bicycle" speed="3.65" length="4.67" shape="4698.24,724.82 4697.52,726.07 4696.75,726.52 4695.92,726.17 4695.05,725.02"/>
    </edge>
    <edge id=":1259934476_6" function="internal">
        <lane id=":1259934476_6_0" index="0" allow="pedestrian delivery bicycle" speed="5.02" length="5.03" shape="4692.12,728.29 4693.47,728.03 4694.42,727.40 4694.94,726.40 4695.05,725.02"/>
    </edge>
    <edge id=":1259934476_7" function="internal">
        <lane id=":1259934476_7_0" index="0" allow="pedestrian delivery bicycle" speed="5.56" length="9.40" shape="4692.12,728.29 4701.51,727.88"/>
    </edge>
    <edge id=":1259934476_8" function="internal">
        <lane id=":1259934476_8_0" index="0" allow="pedestrian delivery bicycle" speed="3.65" length="4.67" shape="4692.12,728.29 4693.35,729.03 4693.78,729.82 4693.42,730.63 4692.25,731.48"/>
    </edge>
    <edge id=":1259934490_0" function="internal">
        <lane id=":1259934490_0_0" index="0" allow="pedestrian delivery bicycle" speed="5.56" length="9.66" shape="4692.87,542.13 4685.37,536.04"/>
    </edge>
    <edge id=":1259934490_1" function="internal">
        <lane id=":1259934490_1_0" index="0" allow="pedestrian delivery bicycle" speed="5.56" length="10.47" shape="4692.87,542.13 4691.31,540.32 4690.58,538.12 4690.68,535.51 4691.62,532.50"/>
    </edge>
    <edge id=":1259934490_2" function="internal">
        <lane id=":1259934490_2_0" index="0" allow="pedestrian delivery bicycle" speed="3.65" length="4.67" shape="4692.87,542.13 4692.44,540.76 4692.64,539.88 4693.45,539.51 4694.89,539.65"/>
    </edge>
    <edge id=":1259934490_3" function="internal">
        <lane id=":1259934490_3_0" index="0" allow="pedestrian delivery bicycle" speed="5.56" length="6.34" shape="4694.56,533.75 4693.92,535.69 4693.76,537.32 4694.08,538.64 4694.89,539.65"/>
    </edge>
    <edge id=":1259934490_4" function="internal">
        <lane id=":1259934490_4_0" index="0" allow="pedestrian delivery bicycle" speed="5.56" length="11.69" shape="4694.56,533.75 4692.84,536.62 4690.73,537.96 4688.24,537.76 4685.37,536.04"/>
    </edge>
    <edge id=":1259934490_5" function="internal">
        <lane id=":1259934490_5_0" index="0" allow="pedestrian delivery bicycle" speed="3.65" length="4.67" shape="4694.56,533.75 4693.36,534.54 4692.47,534.60 4691.89,533.92 4691.62,532.50"/>
    </edge>
    <edge id=":1259934490_6" function="internal">
        <lane id=":1259934490_6_0" index="0" allow="pedestrian delivery bicycle" speed="4.80" length="5.38" shape="4687.39,533.56 4688.71,534.35 4689.85,534.44 4690.82,533.82 4691.62,532.50"/>
    </edge>
    <edge id=":1259934490_7" function="internal">
        <lane id=":1259934490_7_0" index="0" allow="pedestrian delivery bicycle" speed="5.56" length="9.66" shape="4687.39,533.56 4694.89,539.65"/>
    </edge>
    <edge id=":1259934490_8" function="internal">
        <lane id=":1259934490_8_0" index="0" allow="pedestrian delivery bicycle" speed="3.65" length="4.67" shape="4687.39,533.56 4687.81,534.94 4687.62,535.81 4686.81,536.18 4685.37,536.04"/>
    </edge>
    <edge id=":1259934502_0" function="internal">
        <lane id=":1259934502_0_0" index="0" allow="pedestrian delivery bicycle" speed="5.56" length="9.40" shape="4798.78,594.48 4790.24,590.56"/>
    </edge>
    <edge id=":1259934502_1" function="internal">
        <lane id=":1259934502_1_0" index="0" allow="pedestrian delivery bicycle" speed="5.56" length="10.20" shape="4798.78,594.48 4796.43,592.96 4795.13,591.06 4794.89,588.77 4795.71,586.09"/>
    </edge>
    <edge id=":1259934502_2" function="internal">
        <lane id=":1259934502_2_0" index="0" allow="pedestrian delivery bicycle" speed="3.65" length="4.67" shape="4798.78,594.48 4798.02,593.25 4797.99,592.35 4798.69,591.79 4800.12,591.57"/>
    </edge>
    <edge id=":1259934502_3" function="internal">
        <lane id=":1259934502_3_0" index="0" allow="pedestrian delivery bicycle" speed="5.03" length="5.01" shape="4798.61,587.45 4798.21,588.76 4798.32,589.89 4798.96,590.82 4800.12,591.57"/>
    </edge>
    <edge id=":1259934502_4" function="internal">
        <lane id=":1259934502_4_0" index="0" allow="pedestrian delivery bicycle" speed="5.56" length="10.16" shape="4798.61,587.45 4797.08,589.79 4795.17,591.08 4792.89,591.34 4790.24,590.56"/>
    </edge>
    <edge id=":1259934502_5" function="internal">
        <lane id=":1259934502_5_0" index="0" allow="pedestrian delivery bicycle" speed="3.65" length="4.67" shape="4798.61,587.45 4797.37,588.20 4796.48,588.22 4795.93,587.52 4795.71,586.09"/>
    </edge>
    <edge id=":1259934502_6" function="internal">
        <lane id=":1259934502_6_0" index="0" allow="pedestrian delivery bicycle" speed="5.07" length="5.04" shape="4791.57,587.65 4792.88,588.03 4794.01,587.90 4794.95,587.25 4795.71,586.09"/>
    </edge>
    <edge id=":1259934502_7" function="internal">
        <lane id=":1259934502_7_0" index="0" allow="pedestrian delivery bicycle" speed="5.56" length="9.40" shape="4791.57,587.65 4800.12,591.57"/>
    </edge>
    <edge id=":1259934502_8" function="internal">
        <lane id=":1259934502_8_0" index="0" allow="pedestrian delivery bicycle" speed="3.65" length="4.67" shape="4791.57,587.65 4792.33,588.88 4792.36,589.77 4791.66,590.33 4790.24,590.56"/>
    </edge>
    <edge id=":1259934510_0" function="internal">
        <lane id=":1259934510_0_0" index="0" allow="pedestrian delivery bicycle" speed="5.56" length="10.65" shape="4798.09,545.34 4802.54,535.66"/>
    </edge>
    <edge id=":1259934510_1" function="internal">
        <lane id=":1259934510_1_0" index="0" allow="pedestrian delivery bicycle" speed="5.56" length="26.55" shape="4798.09,545.34 4795.11,549.99 4790.31,556.04 4785.18,561.84 4781.25,565.78"/>
    </edge>
    <edge id=":1259934510_2" function="internal">
        <lane id=":1259934510_2_0" index="0" allow="pedestrian delivery bicycle" speed="3.65" length="4.67" shape="4798.09,545.34 4796.87,546.10 4795.97,546.13 4795.41,545.43 4795.18,544.01"/>
    </edge>
    <edge id=":1259934510_3" function="internal">
        <lane id=":1259934510_3_0" index="0" allow="pedestrian delivery bicycle" speed="5.56" length="36.59" shape="4799.63,534.32 4794.04,545.97 4789.11,555.09 4784.85,561.69 4781.25,565.78"/>
    </edge>
    <edge id=":1259934510_4" function="internal">
        <lane id=":1259934510_4_0" index="0" allow="pedestrian delivery bicycle" speed="5.56" length="10.65" shape="4799.63,534.32 4795.18,544.01"/>
    </edge>
    <edge id=":1259934510_5" function="internal">
        <lane id=":1259934510_5_0" index="0" allow="pedestrian delivery bicycle" speed="3.65" length="4.67" shape="4799.63,534.32 4800.86,533.57 4801.75,533.54 4802.31,534.23 4802.54,535.66"/>
    </edge>
    <edge id=":1259934520_0" function="internal">
        <lane id=":1259934520_0_0" index="0" allow="pedestrian delivery bicycle" speed="3.65" length="4.67" shape="4597.62,355.40 4597.19,354.02 4597.39,353.15 4598.20,352.78 4599.64,352.92"/>
    </edge>
    <edge id=":1259934524_0" function="internal">
        <lane id=":1259934524_0_0" index="0" allow="pedestrian delivery bicycle" speed="3.65" length="4.67" shape="4702.14,470.19 4700.92,470.95 4700.02,470.99 4699.46,470.30 4699.22,468.87"/>
    </edge>
    <edge id=":1259934539_0" function="internal">
        <lane id=":1259934539_0_0" index="0" allow="pedestrian delivery bicycle" speed="4.98" length="5.07" shape="4628.37,379.51 4627.17,378.79 4626.04,378.64 4624.99,379.07 4624.02,380.08"/>
    </edge>
    <edge id=":1259934539_1" function="internal">
        <lane id=":1259934539_1_0" index="0" allow="pedestrian delivery bicycle" speed="5.56" length="9.47" shape="4628.37,379.51 4620.92,373.66"/>
    </edge>
    <edge id=":1259934539_2" function="internal">
        <lane id=":1259934539_2_0" index="0" allow="pedestrian delivery bicycle" speed="3.65" length="4.67" shape="4628.37,379.51 4627.95,378.13 4628.15,377.26 4628.96,376.90 4630.40,377.04"/>
    </edge>
    <edge id=":1259934539_3" function="internal">
        <lane id=":1259934539_3_0" index="0" allow="pedestrian delivery bicycle" speed="5.56" length="9.61" shape="4622.84,371.11 4630.40,377.04"/>
    </edge>
    <edge id=":1259934539_4" function="internal">
        <lane id=":1259934539_4_0" index="0" allow="pedestrian delivery bicycle" speed="5.56" length="10.28" shape="4622.84,371.11 4624.78,373.06 4625.62,375.21 4625.37,377.55 4624.02,380.08"/>
    </edge>
    <edge id=":1259934539_5" function="internal">
        <lane id=":1259934539_5_0" index="0" allow="pedestrian delivery bicycle" speed="3.65" length="4.67" shape="4622.84,371.11 4623.32,372.47 4623.16,373.35 4622.36,373.75 4620.92,373.66"/>
    </edge>
    <edge id=":1259934539_6" function="internal">
        <lane id=":1259934539_6_0" index="0" allow="pedestrian delivery bicycle" speed="5.15" length="5.19" shape="4621.43,378.21 4622.12,376.91 4622.27,375.72 4621.87,374.64 4620.92,373.66"/>
    </edge>
    <edge id=":1259934539_7" function="internal">
        <lane id=":1259934539_7_0" index="0" allow="pedestrian delivery bicycle" speed="5.56" length="10.47" shape="4621.43,378.21 4623.43,376.13 4625.60,375.24 4627.92,375.54 4630.40,377.04"/>
    </edge>
    <edge id=":1259934539_8" function="internal">
        <lane id=":1259934539_8_0" index="0" allow="pedestrian delivery bicycle" speed="3.65" length="4.67" shape="4621.43,378.21 4622.78,377.70 4623.66,377.85 4624.07,378.64 4624.02,380.08"/>
    </edge>
    <edge id=":1259934541_0" function="internal">
        <lane id=":1259934541_0_0" index="0" allow="pedestrian delivery bicycle" speed="3.65" length="4.67" shape="4766.90,733.54 4766.13,734.76 4765.34,735.18 4764.53,734.80 4763.70,733.62"/>
    </edge>
    <edge id=":1259934552_0" function="internal">
        <lane id=":1259934552_0_0" index="0" allow="pedestrian delivery bicycle" speed="5.56" length="9.60" shape="4946.41,718.84 4936.95,717.17"/>
    </edge>
    <edge id=":1259934552_1" function="internal">
        <lane id=":1259934552_1_0" index="0" allow="pedestrian delivery bicycle" speed="5.56" length="11.49" shape="4946.41,718.84 4943.30,717.82 4941.53,716.09 4941.10,713.66 4942.01,710.51"/>
    </edge>
    <edge id=":1259934552_2" function="internal">
        <lane id=":1259934552_2_0" index="0" allow="pedestrian delivery bicycle" speed="3.65" length="4.67" shape="4946.41,718.84 4945.37,717.85 4945.11,716.99 4945.65,716.27 4946.97,715.69"/>
    </edge>
    <edge id=":1259934552_3" function="internal">
        <lane id=":1259934552_3_0" index="0" allow="pedestrian delivery bicycle" speed="4.82" length="5.33" shape="4944.93,711.83 4944.51,713.29 4944.71,714.42 4945.53,715.22 4946.97,715.69"/>
    </edge>
    <edge id=":1259934552_4" function="internal">
        <lane id=":1259934552_4_0" index="0" allow="pedestrian delivery bicycle" speed="5.56" length="10.41" shape="4944.93,711.83 4943.37,714.51 4941.52,716.29 4939.38,717.18 4936.95,717.17"/>
    </edge>
    <edge id=":1259934552_5" function="internal">
        <lane id=":1259934552_5_0" index="0" allow="pedestrian delivery bicycle" speed="3.65" length="4.67" shape="4944.93,711.83 4943.70,712.59 4942.81,712.63 4942.25,711.94 4942.01,710.51"/>
    </edge>
    <edge id=":1259934552_6" function="internal">
        <lane id=":1259934552_6_0" index="0" allow="pedestrian delivery bicycle" speed="5.56" length="6.15" shape="4937.51,714.02 4938.81,713.98 4939.99,713.38 4941.05,712.23 4942.01,710.51"/>
    </edge>
    <edge id=":1259934552_7" function="internal">
        <lane id=":1259934552_7_0" index="0" allow="pedestrian delivery bicycle" speed="5.56" length="9.60" shape="4937.51,714.02 4946.97,715.69"/>
    </edge>
    <edge id=":1259934552_8" function="internal">
        <lane id=":1259934552_8_0" index="0" allow="pedestrian delivery bicycle" speed="3.65" length="4.67" shape="4937.51,714.02 4938.55,715.02 4938.81,715.87 4938.28,716.59 4936.95,717.17"/>
    </edge>
    <edge id=":1259934553_0" function="internal">
        <lane id=":1259934553_0_0" index="0" allow="pedestrian delivery bicycle" speed="5.56" length="11.19" shape="4894.03,647.05 4890.90,646.68 4888.50,646.21 4886.20,645.42 4883.34,644.10"/>
    </edge>
    <edge id=":1259934553_1" function="internal">
        <lane id=":1259934553_1_0" index="0" allow="pedestrian delivery bicycle" speed="5.56" length="11.71" shape="4894.03,647.05 4890.78,646.23 4888.89,644.60 4888.35,642.15 4889.18,638.90"/>
    </edge>
    <edge id=":1259934553_2" function="internal">
        <lane id=":1259934553_2_0" index="0" allow="pedestrian delivery bicycle" speed="3.65" length="4.67" shape="4894.03,647.05 4892.93,646.13 4892.61,645.29 4893.09,644.54 4894.37,643.87"/>
    </edge>
    <edge id=":1259934553_3" function="internal">
        <lane id=":1259934553_3_0" index="0" allow="pedestrian delivery bicycle" speed="4.79" length="5.38" shape="4892.14,640.12 4891.76,641.62 4892.00,642.74 4892.88,643.49 4894.37,643.87"/>
    </edge>
    <edge id=":1259934553_4" function="internal">
        <lane id=":1259934553_4_0" index="0" allow="pedestrian delivery bicycle" speed="5.56" length="11.18" shape="4892.14,640.12 4890.52,642.97 4888.51,644.58 4886.12,644.96 4883.34,644.10"/>
    </edge>
    <edge id=":1259934553_5" function="internal">
        <lane id=":1259934553_5_0" index="0" allow="pedestrian delivery bicycle" speed="3.65" length="4.67" shape="4892.14,640.12 4890.94,640.93 4890.05,640.99 4889.46,640.32 4889.18,638.90"/>
    </edge>
    <edge id=":1259934553_6" function="internal">
        <lane id=":1259934553_6_0" index="0" allow="pedestrian delivery bicycle" speed="5.24" length="5.77" shape="4884.75,641.23 4886.11,641.62 4887.30,641.36 4888.32,640.46 4889.18,638.90"/>
    </edge>
    <edge id=":1259934553_7" function="internal">
        <lane id=":1259934553_7_0" index="0" allow="pedestrian delivery bicycle" speed="5.56" length="10.07" shape="4884.75,641.23 4887.44,642.50 4889.38,643.18 4891.41,643.54 4894.37,643.87"/>
    </edge>
    <edge id=":1259934553_8" function="internal">
        <lane id=":1259934553_8_0" index="0" allow="pedestrian delivery bicycle" speed="3.65" length="4.67" shape="4884.75,641.23 4885.47,642.48 4885.48,643.38 4884.77,643.92 4883.34,644.10"/>
    </edge>
    <edge id=":1259934554_0" function="internal">
        <lane id=":1259934554_0_0" index="0" allow="pedestrian delivery bicycle" speed="4.93" length="5.14" shape="4683.57,780.60 4683.70,782.03 4684.26,783.02 4685.26,783.57 4686.68,783.69"/>
    </edge>
    <edge id=":1259934554_1" function="internal">
        <lane id=":1259934554_1_0" index="0" allow="pedestrian delivery bicycle" speed="3.65" length="4.67" shape="4683.57,780.60 4682.71,781.76 4681.89,782.12 4681.11,781.68 4680.37,780.44"/>
    </edge>
    <edge id=":1259934554_2" function="internal">
        <lane id=":1259934554_2_0" index="0" allow="pedestrian delivery bicycle" speed="5.51" length="5.52" shape="4677.30,784.37 4678.57,784.03 4679.51,783.27 4680.11,782.07 4680.37,780.44"/>
    </edge>
    <edge id=":1259934554_3" function="internal">
        <lane id=":1259934554_3_0" index="0" disallow="tram rail_urban rail rail_electric rail_fast ship" speed="20.12" length="9.41" shape="4677.30,784.37 4686.68,783.69"/>
    </edge>
    <edge id=":1259934556_0" function="internal">
        <lane id=":1259934556_0_0" index="0" allow="pedestrian delivery bicycle" speed="5.56" length="11.39" shape="4875.12,640.04 4872.32,638.53 4870.28,637.09 4868.44,635.39 4866.24,633.07"/>
    </edge>
    <edge id=":1259934556_1" function="internal">
        <lane id=":1259934556_1_0" index="0" allow="pedestrian delivery bicycle" speed="5.56" length="11.42" shape="4875.12,640.04 4872.92,638.41 4871.80,636.22 4871.78,633.47 4872.84,630.17"/>
    </edge>
    <edge id=":1259934556_2" function="internal">
        <lane id=":1259934556_2_0" index="0" allow="pedestrian delivery bicycle" speed="3.65" length="4.67" shape="4875.12,640.04 4874.40,638.80 4874.39,637.90 4875.11,637.36 4876.54,637.18"/>
    </edge>
    <edge id=":1259934556_3" function="internal">
        <lane id=":1259934556_3_0" index="0" allow="pedestrian delivery bicycle" speed="5.56" length="6.42" shape="4875.76,631.48 4875.08,633.46 4874.98,635.08 4875.47,636.31 4876.54,637.18"/>
    </edge>
    <edge id=":1259934556_4" function="internal">
        <lane id=":1259934556_4_0" index="0" allow="pedestrian delivery bicycle" speed="5.56" length="12.43" shape="4875.76,631.48 4873.83,634.56 4871.60,635.85 4869.07,635.35 4866.24,633.07"/>
    </edge>
    <edge id=":1259934556_5" function="internal">
        <lane id=":1259934556_5_0" index="0" allow="pedestrian delivery bicycle" speed="3.65" length="4.67" shape="4875.76,631.48 4874.54,632.24 4873.65,632.28 4873.08,631.59 4872.84,630.17"/>
    </edge>
    <edge id=":1259934556_6" function="internal">
        <lane id=":1259934556_6_0" index="0" allow="pedestrian delivery bicycle" speed="4.73" length="5.57" shape="4868.57,630.88 4869.84,631.90 4870.98,632.13 4871.98,631.55 4872.84,630.17"/>
    </edge>
    <edge id=":1259934556_7" function="internal">
        <lane id=":1259934556_7_0" index="0" allow="pedestrian delivery bicycle" speed="5.56" length="10.25" shape="4868.57,630.88 4870.63,633.09 4872.16,634.57 4873.88,635.77 4876.54,637.18"/>
    </edge>
    <edge id=":1259934556_8" function="internal">
        <lane id=":1259934556_8_0" index="0" allow="pedestrian delivery bicycle" speed="3.65" length="4.67" shape="4868.57,630.88 4868.81,632.30 4868.50,633.14 4867.64,633.40 4866.24,633.07"/>
    </edge>
    <edge id=":1259934562_0" function="internal">
        <lane id=":1259934562_0_0" index="0" allow="pedestrian delivery bicycle" speed="5.56" length="13.46" shape="4713.58,675.15 4709.95,673.98 4706.84,674.17 4704.26,675.70 4702.21,678.58"/>
    </edge>
    <edge id=":1259934562_1" function="internal">
        <lane id=":1259934562_1_0" index="0" allow="pedestrian delivery bicycle" speed="5.56" length="15.03" shape="4713.58,675.15 4699.81,669.10"/>
    </edge>
    <edge id=":1259934562_2" function="internal">
        <lane id=":1259934562_2_0" index="0" allow="pedestrian delivery bicycle" speed="5.56" length="10.08" shape="4713.58,675.15 4711.28,673.63 4710.00,671.74 4709.74,669.47 4710.51,666.83"/>
    </edge>
    <edge id=":1259934562_3" function="internal">
        <lane id=":1259934562_3_0" index="0" allow="pedestrian delivery bicycle" speed="3.65" length="4.67" shape="4713.58,675.15 4712.83,673.91 4712.81,673.02 4713.52,672.47 4714.94,672.26"/>
    </edge>
    <edge id=":1259934562_4" function="internal">
        <lane id=":1259934562_4_0" index="0" allow="pedestrian delivery bicycle" speed="5.06" length="4.98" shape="4713.43,668.14 4713.05,669.45 4713.18,670.57 4713.81,671.51 4714.94,672.26"/>
    </edge>
    <edge id=":1259934562_5" function="internal">
        <lane id=":1259934562_5_0" index="0" allow="pedestrian delivery bicycle" speed="5.56" length="15.46" shape="4713.43,668.14 4711.12,671.07 4707.89,673.40 4704.62,675.71 4702.21,678.58"/>
    </edge>
    <edge id=":1259934562_6" function="internal">
        <lane id=":1259934562_6_0" index="0" allow="pedestrian delivery bicycle" speed="5.56" length="15.08" shape="4713.43,668.14 4711.62,670.33 4708.75,671.21 4704.81,670.81 4699.81,669.10"/>
    </edge>
    <edge id=":1259934562_7" function="internal">
        <lane id=":1259934562_7_0" index="0" allow="pedestrian delivery bicycle" speed="3.65" length="4.67" shape="4713.43,668.14 4712.21,668.91 4711.31,668.94 4710.75,668.25 4710.51,666.83"/>
    </edge>
    <edge id=":1259934562_8" function="internal">
        <lane id=":1259934562_8_0" index="0" allow="pedestrian delivery bicycle" speed="5.56" length="10.16" shape="4701.07,666.16 4704.72,667.50 4707.52,668.06 4709.45,667.84 4710.51,666.83"/>
    </edge>
    <edge id=":1259934562_9" function="internal">
        <lane id=":1259934562_9_0" index="0" allow="pedestrian delivery bicycle" speed="5.56" length="15.16" shape="4701.07,666.16 4714.94,672.26"/>
    </edge>
    <edge id=":1259934562_10" function="internal">
        <lane id=":1259934562_10_0" index="0" allow="pedestrian delivery bicycle" speed="5.56" length="14.15" shape="4701.07,666.16 4703.42,667.91 4704.40,670.56 4703.99,674.12 4702.21,678.58"/>
    </edge>
    <edge id=":1259934562_11" function="internal">