<?xml version="1.0" encoding="UTF-8"?>

<!-- generated on 10/05/20 19:59:43 by Eclipse SUMO netedit Version 1.7.0
<configuration xmlns:xsi="http://www.w3.org/2001/XMLSchema-instance" xsi:noNamespaceSchemaLocation="http://sumo.dlr.de/xsd/netconvertConfiguration.xsd">

    <input>
        <sumo-net-file value="C:\Users\anike\Desktop\Education\George%20Mason%20University\Sem%204-Fall%20-%202020\CS%20695%20-%20Connected%20Autonomous%20Vehicles\Projects\1st%20mini%20project\Git_Repo\sumo_project\braddock.net.xml"/>
    </input>

    <output>
        <output-file value="C:\Users\anike\Desktop\Education\George%20Mason%20University\Sem%204-Fall%20-%202020\CS%20695%20-%20Connected%20Autonomous%20Vehicles\Projects\1st%20mini%20project\Git_Repo\sumo_project\braddock.net.xml"/>
    </output>

    <processing>
        <geometry.min-radius.fix.railways value="false"/>
        <geometry.max-grade.fix value="false"/>
        <offset.disable-normalization value="true"/>
        <lefthand value="false"/>
    </processing>

    <junctions>
        <no-turnarounds value="true"/>
        <junctions.corner-detail value="5"/>
        <junctions.limit-turn-speed value="5.5"/>
        <rectangular-lane-cut value="false"/>
    </junctions>

    <pedestrian>
        <walkingareas value="false"/>
    </pedestrian>

    <netedit>
        <route-files value="C:\Users\anike\Desktop\Education\George%20Mason%20University\Sem%204-Fall%20-%202020\CS%20695%20-%20Connected%20Autonomous%20Vehicles\Projects\1st%20mini%20project\Git_Repo\sumo_project\braddock-flow.rou.xml"/>
    </netedit>

    <report>
        <aggregate-warnings value="5"/>
    </report>

</configuration>
-->

<routes xmlns:xsi="http://www.w3.org/2001/XMLSchema-instance" xsi:noNamespaceSchemaLocation="http://sumo.dlr.de/xsd/routes_file.xsd">
    <flow id="eastam" begin="0.00" color="yellow" end="10800.00" vehsPerHour="1389.96">
        <route edges="590855737#0 590855737#1 590855737#2 590855737#2.97 590855741#0 590855741#0.238 590855741#1 590855741#1.52 590855741#2 590855741#3 590855741#3.120 590855741#4 590855741#4.91 144267617#0 144267617#0.156 144267617#1 144267617#2 144267617#3 144267617#3.252 144267617#4 144267617#4.122 171719519#1 171719519#2 171719519#3 171719519#3.44 171719519#4 171719519#5 171719519#6 171719502#0" color="yellow"/>
    </flow>
    <flow id="westam" begin="0.00" color="yellow" end="10800.00" vehsPerHour="600.00">
        <route edges="171719521#0 171719521#2 171719498#0 171719498#0.237 171719498#1 171719498#1.56 171719506#0 171719506#0.133 171719506#1 171719506#1.207 171719506#2 171719506#2.93 171719506#3 171719506#3.58 590855742#0 590855742#0.124 590855742#1 590855742#2 590855742#2.61 590855742#3 590855742#3.305 590855738#0 590855738#1 590855738#2" color="yellow"/>
    </flow>
    <flow id="eastampm" begin="10800.00" color="yellow" end="32400.00" vehsPerHour="600.00">
        <route edges="590855737#0 590855737#1 590855737#2 590855737#2.97 590855741#0 590855741#0.238 590855741#1 590855741#1.52 590855741#2 590855741#3 590855741#3.120 590855741#4 590855741#4.91 144267617#0 144267617#0.156 144267617#1 144267617#2 144267617#3 144267617#3.252 144267617#4 144267617#4.122 171719519#1 171719519#2 171719519#3 171719519#3.44 171719519#4 171719519#5 171719519#6 171719502#0" color="yellow"/>
    </flow>
    <flow id="westampm" begin="10800.00" color="yellow" end="32400.00" vehsPerHour="600.00">
        <route edges="171719521#0 171719521#2 171719498#0 171719498#0.237 171719498#1 171719498#1.56 171719506#0 171719506#0.133 171719506#1 171719506#1.207 171719506#2 171719506#2.93 171719506#3 171719506#3.58 590855742#0 590855742#0.124 590855742#1 590855742#2 590855742#2.61 590855742#3 590855742#3.305 590855738#0 590855738#1 590855738#2" color="yellow"/>
    </flow>
    <flow id="eastpm" begin="32400.00" color="yellow" end="46800.00" vehsPerHour="600.00">
        <route edges="590855737#0 590855737#1 590855737#2 590855737#2.97 590855741#0 590855741#0.238 590855741#1 590855741#1.52 590855741#2 590855741#3 590855741#3.120 590855741#4 590855741#4.91 144267617#0 144267617#0.156 144267617#1 144267617#2 144267617#3 144267617#3.252 144267617#4 144267617#4.122 171719519#1 171719519#2 171719519#3 171719519#3.44 171719519#4 171719519#5 171719519#6 171719502#0" color="yellow"/>
    </flow>
    <flow id="westpm" begin="32400.00" color="yellow" end="46800.00" vehsPerHour="1389.96">
        <route edges="171719521#0 171719521#2 171719498#0 171719498#0.237 171719498#1 171719498#1.56 171719506#0 171719506#0.133 171719506#1 171719506#1.207 171719506#2 171719506#2.93 171719506#3 171719506#3.58 590855742#0 590855742#0.124 590855742#1 590855742#2 590855742#2.61 590855742#3 590855742#3.305 590855738#0 590855738#1 590855738#2" color="yellow"/>
    </flow>
</routes>
