<?xml version="1.0" encoding="UTF-8"?>

<!-- generated on 10/04/20 13:11:02 by Eclipse SUMO netedit Version 1.7.0
<configuration xmlns:xsi="http://www.w3.org/2001/XMLSchema-instance" xsi:noNamespaceSchemaLocation="http://sumo.dlr.de/xsd/netconvertConfiguration.xsd">

    <input>
        <sumo-net-file value="C:\Users\anike\Desktop\Education\George%20Mason%20University\Sem%204-Fall%20-%202020\CS%20695%20-%20Connected%20Autonomous%20Vehicles\Projects\1st%20mini%20project\Git_Repo\sumo_project\braddock.net.xml"/>
    </input>

    <output>
        <output-file value="C:\Users\anike\Desktop\Education\George%20Mason%20University\Sem%204-Fall%20-%202020\CS%20695%20-%20Connected%20Autonomous%20Vehicles\Projects\1st%20mini%20project\Git_Repo\sumo_project\braddock.net.xml"/>
    </output>

    <processing>
        <geometry.min-radius.fix.railways value="false"/>
        <geometry.max-grade.fix value="false"/>
        <offset.disable-normalization value="true"/>
        <lefthand value="false"/>
    </processing>

    <junctions>
        <no-turnarounds value="true"/>
        <junctions.corner-detail value="5"/>
        <junctions.limit-turn-speed value="5.5"/>
        <rectangular-lane-cut value="false"/>
    </junctions>

    <pedestrian>
        <walkingareas value="false"/>
    </pedestrian>

    <netedit>
        <route-files value="C:\Users\anike\Desktop\Education\George%20Mason%20University\Sem%204-Fall%20-%202020\CS%20695%20-%20Connected%20Autonomous%20Vehicles\Projects\1st%20mini%20project\Git_Repo\sumo_project\braddock.rou.xml"/>
    </netedit>

    <report>
        <aggregate-warnings value="5"/>
    </report>

</configuration>
-->

<routes xmlns:xsi="http://www.w3.org/2001/XMLSchema-instance" xsi:noNamespaceSchemaLocation="http://sumo.dlr.de/xsd/routes_file.xsd">
</routes>
