<?xml version="1.0" encoding="UTF-8"?>

<!-- generated on 10/12/20 23:05:24 by Eclipse SUMO GUI Version 1.7.0
<configuration xmlns:xsi="http://www.w3.org/2001/XMLSchema-instance" xsi:noNamespaceSchemaLocation="http://sumo.dlr.de/xsd/sumoConfiguration.xsd">

    <input>
        <net-file value="C:\Users\anike\Desktop\Education\George%20Mason%20University\Sem%204-Fall%20-%202020\CS%20695%20-%20Connected%20Autonomous%20Vehicles\Projects\1st%20mini%20project\Git_Repo\sumo_project\.\braddock.net.xml"/>
        <route-files value="C:\Users\anike\Desktop\Education\George%20Mason%20University\Sem%204-Fall%20-%202020\CS%20695%20-%20Connected%20Autonomous%20Vehicles\Projects\1st%20mini%20project\Git_Repo\sumo_project\.\braddock-flow.rou.xml,C:\Users\anike\Desktop\Education\George%20Mason%20University\Sem%204-Fall%20-%202020\CS%20695%20-%20Connected%20Autonomous%20Vehicles\Projects\1st%20mini%20project\Git_Repo\sumo_project\.\routes.routes.xml"/>
        <additional-files value="C:\Users\anike\Desktop\Education\George%20Mason%20University\Sem%204-Fall%20-%202020\CS%20695%20-%20Connected%20Autonomous%20Vehicles\Projects\1st%20mini%20project\Git_Repo\sumo_project\edgedata.additional.xml,C:\Users\anike\Desktop\Education\George%20Mason%20University\Sem%204-Fall%20-%202020\CS%20695%20-%20Connected%20Autonomous%20Vehicles\Projects\1st%20mini%20project\Git_Repo\sumo_project\tr_phase/twinbrook_dr/twinbrook_switch_actuated.xml,C:\Users\anike\Desktop\Education\George%20Mason%20University\Sem%204-Fall%20-%202020\CS%20695%20-%20Connected%20Autonomous%20Vehicles\Projects\1st%20mini%20project\Git_Repo\sumo_project\tr_phase/burke_lake/burke_lake_switch_actuated.xml,C:\Users\anike\Desktop\Education\George%20Mason%20University\Sem%204-Fall%20-%202020\CS%20695%20-%20Connected%20Autonomous%20Vehicles\Projects\1st%20mini%20project\Git_Repo\sumo_project\tr_phase/rolling_rd/rolling_rd_switch_actuated.xml,C:\Users\anike\Desktop\Education\George%20Mason%20University\Sem%204-Fall%20-%202020\CS%20695%20-%20Connected%20Autonomous%20Vehicles\Projects\1st%20mini%20project\Git_Repo\sumo_project\tr_phase/olley_ln/olley_ln_switch_actuated.xml,C:\Users\anike\Desktop\Education\George%20Mason%20University\Sem%204-Fall%20-%202020\CS%20695%20-%20Connected%20Autonomous%20Vehicles\Projects\1st%20mini%20project\Git_Repo\sumo_project\tr_phase/guinea_rd/guinea_rd_switch_actuated.xml,C:\Users\anike\Desktop\Education\George%20Mason%20University\Sem%204-Fall%20-%202020\CS%20695%20-%20Connected%20Autonomous%20Vehicles\Projects\1st%20mini%20project\Git_Repo\sumo_project\detectors/guinea_detector.xml,C:\Users\anike\Desktop\Education\George%20Mason%20University\Sem%204-Fall%20-%202020\CS%20695%20-%20Connected%20Autonomous%20Vehicles\Projects\1st%20mini%20project\Git_Repo\sumo_project\detectors/twinbrook_detector.xml,C:\Users\anike\Desktop\Education\George%20Mason%20University\Sem%204-Fall%20-%202020\CS%20695%20-%20Connected%20Autonomous%20Vehicles\Projects\1st%20mini%20project\Git_Repo\sumo_project\detectors/rolling_rd_detector.xml,C:\Users\anike\Desktop\Education\George%20Mason%20University\Sem%204-Fall%20-%202020\CS%20695%20-%20Connected%20Autonomous%20Vehicles\Projects\1st%20mini%20project\Git_Repo\sumo_project\detectors/burke_detector.xml,C:\Users\anike\Desktop\Education\George%20Mason%20University\Sem%204-Fall%20-%202020\CS%20695%20-%20Connected%20Autonomous%20Vehicles\Projects\1st%20mini%20project\Git_Repo\sumo_project\detectors/olley_detector.xml"/>
    </input>

    <time>
        <begin value="0"/>
        <end value="46800"/>
    </time>

</configuration>
-->

<meandata xmlns:xsi="http://www.w3.org/2001/XMLSchema-instance" xsi:noNamespaceSchemaLocation="http://sumo.dlr.de/xsd/meandata_file.xsd">
    <interval begin="10800.00" end="32400.00" id="measurements_edge__ampm">
        <edge id="-110295195#0" sampledSeconds="0.00" departed="0" arrived="0" entered="0" left="0" laneChangedFrom="0" laneChangedTo="0"/>
        <edge id="-110295195#1" sampledSeconds="0.00" departed="0" arrived="0" entered="0" left="0" laneChangedFrom="0" laneChangedTo="0"/>
        <edge id="-110295196" sampledSeconds="0.00" departed="0" arrived="0" entered="0" left="0" laneChangedFrom="0" laneChangedTo="0"/>
        <edge id="-110295201" sampledSeconds="0.00" departed="0" arrived="0" entered="0" left="0" laneChangedFrom="0" laneChangedTo="0"/>
        <edge id="-110295204" sampledSeconds="0.00" departed="0" arrived="0" entered="0" left="0" laneChangedFrom="0" laneChangedTo="0"/>
        <edge id="-110295205#0" sampledSeconds="0.00" departed="0" arrived="0" entered="0" left="0" laneChangedFrom="0" laneChangedTo="0"/>
        <edge id="-110295205#1" sampledSeconds="0.00" departed="0" arrived="0" entered="0" left="0" laneChangedFrom="0" laneChangedTo="0"/>
        <edge id="-110295205#2" sampledSeconds="0.00" departed="0" arrived="0" entered="0" left="0" laneChangedFrom="0" laneChangedTo="0"/>
        <edge id="-110295205#3" sampledSeconds="0.00" departed="0" arrived="0" entered="0" left="0" laneChangedFrom="0" laneChangedTo="0"/>
        <edge id="-110295207#0" sampledSeconds="0.00" departed="0" arrived="0" entered="0" left="0" laneChangedFrom="0" laneChangedTo="0"/>
        <edge id="-110295207#1" sampledSeconds="0.00" departed="0" arrived="0" entered="0" left="0" laneChangedFrom="0" laneChangedTo="0"/>
        <edge id="-110295207#10" sampledSeconds="0.00" departed="0" arrived="0" entered="0" left="0" laneChangedFrom="0" laneChangedTo="0"/>
        <edge id="-110295207#11" sampledSeconds="0.00" departed="0" arrived="0" entered="0" left="0" laneChangedFrom="0" laneChangedTo="0"/>
        <edge id="-110295207#12" sampledSeconds="0.00" departed="0" arrived="0" entered="0" left="0" laneChangedFrom="0" laneChangedTo="0"/>
        <edge id="-110295207#13" sampledSeconds="0.00" departed="0" arrived="0" entered="0" left="0" laneChangedFrom="0" laneChangedTo="0"/>
        <edge id="-110295207#15" sampledSeconds="0.00" departed="0" arrived="0" entered="0" left="0" laneChangedFrom="0" laneChangedTo="0"/>
        <edge id="-110295207#17" sampledSeconds="0.00" departed="0" arrived="0" entered="0" left="0" laneChangedFrom="0" laneChangedTo="0"/>
        <edge id="-110295207#2" sampledSeconds="0.00" departed="0" arrived="0" entered="0" left="0" laneChangedFrom="0" laneChangedTo="0"/>
        <edge id="-110295207#3" sampledSeconds="0.00" departed="0" arrived="0" entered="0" left="0" laneChangedFrom="0" laneChangedTo="0"/>
        <edge id="-110295207#4" sampledSeconds="0.00" departed="0" arrived="0" entered="0" left="0" laneChangedFrom="0" laneChangedTo="0"/>
        <edge id="-110295207#5" sampledSeconds="0.00" departed="0" arrived="0" entered="0" left="0" laneChangedFrom="0" laneChangedTo="0"/>
        <edge id="-110295207#6" sampledSeconds="0.00" departed="0" arrived="0" entered="0" left="0" laneChangedFrom="0" laneChangedTo="0"/>
        <edge id="-110295207#7" sampledSeconds="0.00" departed="0" arrived="0" entered="0" left="0" laneChangedFrom="0" laneChangedTo="0"/>
        <edge id="-110295207#8" sampledSeconds="0.00" departed="0" arrived="0" entered="0" left="0" laneChangedFrom="0" laneChangedTo="0"/>
        <edge id="-110295207#9" sampledSeconds="0.00" departed="0" arrived="0" entered="0" left="0" laneChangedFrom="0" laneChangedTo="0"/>
        <edge id="-110295208" sampledSeconds="0.00" departed="0" arrived="0" entered="0" left="0" laneChangedFrom="0" laneChangedTo="0"/>
        <edge id="-110295209#2" sampledSeconds="0.00" departed="0" arrived="0" entered="0" left="0" laneChangedFrom="0" laneChangedTo="0"/>
        <edge id="-110295218" sampledSeconds="0.00" departed="0" arrived="0" entered="0" left="0" laneChangedFrom="0" laneChangedTo="0"/>
        <edge id="-110295219#0" sampledSeconds="0.00" departed="0" arrived="0" entered="0" left="0" laneChangedFrom="0" laneChangedTo="0"/>
        <edge id="-110295219#1" sampledSeconds="0.00" departed="0" arrived="0" entered="0" left="0" laneChangedFrom="0" laneChangedTo="0"/>
        <edge id="-110295219#3" sampledSeconds="0.00" departed="0" arrived="0" entered="0" left="0" laneChangedFrom="0" laneChangedTo="0"/>
        <edge id="-110295220" sampledSeconds="0.00" departed="0" arrived="0" entered="0" left="0" laneChangedFrom="0" laneChangedTo="0"/>
        <edge id="-110295223" sampledSeconds="0.00" departed="0" arrived="0" entered="0" left="0" laneChangedFrom="0" laneChangedTo="0"/>
        <edge id="-110295228" sampledSeconds="0.00" departed="0" arrived="0" entered="0" left="0" laneChangedFrom="0" laneChangedTo="0"/>
        <edge id="-110295232#0" sampledSeconds="0.00" departed="0" arrived="0" entered="0" left="0" laneChangedFrom="0" laneChangedTo="0"/>
        <edge id="-110295232#1" sampledSeconds="0.00" departed="0" arrived="0" entered="0" left="0" laneChangedFrom="0" laneChangedTo="0"/>
        <edge id="-110295232#2" sampledSeconds="0.00" departed="0" arrived="0" entered="0" left="0" laneChangedFrom="0" laneChangedTo="0"/>
        <edge id="-110295232#3" sampledSeconds="0.00" departed="0" arrived="0" entered="0" left="0" laneChangedFrom="0" laneChangedTo="0"/>
        <edge id="-110295232#4" sampledSeconds="0.00" departed="0" arrived="0" entered="0" left="0" laneChangedFrom="0" laneChangedTo="0"/>
        <edge id="-110295232#5" sampledSeconds="0.00" departed="0" arrived="0" entered="0" left="0" laneChangedFrom="0" laneChangedTo="0"/>
        <edge id="-110295232#6" sampledSeconds="0.00" departed="0" arrived="0" entered="0" left="0" laneChangedFrom="0" laneChangedTo="0"/>
        <edge id="-110295233" sampledSeconds="0.00" departed="0" arrived="0" entered="0" left="0" laneChangedFrom="0" laneChangedTo="0"/>
        <edge id="-110295234#0" sampledSeconds="0.00" departed="0" arrived="0" entered="0" left="0" laneChangedFrom="0" laneChangedTo="0"/>
        <edge id="-110295234#1" sampledSeconds="0.00" departed="0" arrived="0" entered="0" left="0" laneChangedFrom="0" laneChangedTo="0"/>
        <edge id="-110295235#0" sampledSeconds="0.00" departed="0" arrived="0" entered="0" left="0" laneChangedFrom="0" laneChangedTo="0"/>
        <edge id="-110295235#1" sampledSeconds="0.00" departed="0" arrived="0" entered="0" left="0" laneChangedFrom="0" laneChangedTo="0"/>
        <edge id="-110295237" sampledSeconds="0.00" departed="0" arrived="0" entered="0" left="0" laneChangedFrom="0" laneChangedTo="0"/>
        <edge id="-110295239" sampledSeconds="0.00" departed="0" arrived="0" entered="0" left="0" laneChangedFrom="0" laneChangedTo="0"/>
        <edge id="-110295241" sampledSeconds="0.00" departed="0" arrived="0" entered="0" left="0" laneChangedFrom="0" laneChangedTo="0"/>
        <edge id="-110295242" sampledSeconds="0.00" departed="0" arrived="0" entered="0" left="0" laneChangedFrom="0" laneChangedTo="0"/>
        <edge id="-110295243" sampledSeconds="0.00" departed="0" arrived="0" entered="0" left="0" laneChangedFrom="0" laneChangedTo="0"/>
        <edge id="-110295244#0" sampledSeconds="0.00" departed="0" arrived="0" entered="0" left="0" laneChangedFrom="0" laneChangedTo="0"/>
        <edge id="-110295244#1" sampledSeconds="0.00" departed="0" arrived="0" entered="0" left="0" laneChangedFrom="0" laneChangedTo="0"/>
        <edge id="-110295244#2" sampledSeconds="0.00" departed="0" arrived="0" entered="0" left="0" laneChangedFrom="0" laneChangedTo="0"/>
        <edge id="-110295244#3" sampledSeconds="0.00" departed="0" arrived="0" entered="0" left="0" laneChangedFrom="0" laneChangedTo="0"/>
        <edge id="-110295244#4" sampledSeconds="0.00" departed="0" arrived="0" entered="0" left="0" laneChangedFrom="0" laneChangedTo="0"/>
        <edge id="-110295244#5" sampledSeconds="0.00" departed="0" arrived="0" entered="0" left="0" laneChangedFrom="0" laneChangedTo="0"/>
        <edge id="-110295244#6" sampledSeconds="0.00" departed="0" arrived="0" entered="0" left="0" laneChangedFrom="0" laneChangedTo="0"/>
        <edge id="-110295244#7" sampledSeconds="0.00" departed="0" arrived="0" entered="0" left="0" laneChangedFrom="0" laneChangedTo="0"/>
        <edge id="-110295248" sampledSeconds="0.00" departed="0" arrived="0" entered="0" left="0" laneChangedFrom="0" laneChangedTo="0"/>
        <edge id="-110295249" sampledSeconds="0.00" departed="0" arrived="0" entered="0" left="0" laneChangedFrom="0" laneChangedTo="0"/>
        <edge id="-110295250" sampledSeconds="0.00" departed="0" arrived="0" entered="0" left="0" laneChangedFrom="0" laneChangedTo="0"/>
        <edge id="-110295251#10" sampledSeconds="301.63" traveltime="5.48" overlapTraveltime="6.20" density="0.25" laneDensity="0.25" occupancy="0.11" waitingTime="0.00" speed="9.87" departed="4" arrived="1" entered="45" left="48" laneChangedFrom="0" laneChangedTo="0"/>
        <edge id="-110295251#2" sampledSeconds="286.43" traveltime="14.10" overlapTraveltime="15.30" density="0.22" laneDensity="0.22" occupancy="0.10" waitingTime="127.00" speed="4.35" departed="2" arrived="4" entered="17" left="15" laneChangedFrom="0" laneChangedTo="0"/>
        <edge id="-110295251#3" sampledSeconds="126.02" traveltime="6.74" overlapTraveltime="7.44" density="0.08" laneDensity="0.08" occupancy="0.04" waitingTime="0.00" speed="10.33" departed="1" arrived="1" entered="16" left="16" laneChangedFrom="0" laneChangedTo="0"/>
        <edge id="-110295251#4" sampledSeconds="199.86" traveltime="12.82" overlapTraveltime="13.38" density="0.06" laneDensity="0.06" occupancy="0.03" waitingTime="0.00" speed="11.12" departed="1" arrived="4" entered="14" left="11" laneChangedFrom="0" laneChangedTo="0"/>
        <edge id="-110295251#5" sampledSeconds="120.51" traveltime="13.21" overlapTraveltime="13.60" density="0.04" laneDensity="0.04" occupancy="0.02" waitingTime="0.00" speed="11.40" departed="3" arrived="2" entered="6" left="7" laneChangedFrom="0" laneChangedTo="0"/>
        <edge id="-110295251#6" sampledSeconds="796.58" traveltime="23.27" overlapTraveltime="24.18" density="0.12" laneDensity="0.12" occupancy="0.06" waitingTime="0.00" speed="12.42" departed="3" arrived="0" entered="30" left="33" laneChangedFrom="0" laneChangedTo="0"/>
        <edge id="-110295251#7" sampledSeconds="434.49" traveltime="14.22" overlapTraveltime="15.01" density="0.12" laneDensity="0.12" occupancy="0.06" waitingTime="0.00" speed="11.94" departed="2" arrived="1" entered="27" left="28" laneChangedFrom="0" laneChangedTo="0"/>
        <edge id="-110295251#8" sampledSeconds="629.59" traveltime="17.90" overlapTraveltime="18.54" density="0.13" laneDensity="0.13" occupancy="0.06" waitingTime="0.00" speed="12.60" departed="2" arrived="2" entered="32" left="32" laneChangedFrom="0" laneChangedTo="0"/>
        <edge id="-110295252" sampledSeconds="0.00" departed="0" arrived="0" entered="0" left="0" laneChangedFrom="0" laneChangedTo="0"/>
        <edge id="-110295253#2" sampledSeconds="0.00" departed="0" arrived="0" entered="0" left="0" laneChangedFrom="0" laneChangedTo="0"/>
        <edge id="-110295253#3" sampledSeconds="0.00" departed="0" arrived="0" entered="0" left="0" laneChangedFrom="0" laneChangedTo="0"/>
        <edge id="-110295253#4" sampledSeconds="0.00" departed="0" arrived="0" entered="0" left="0" laneChangedFrom="0" laneChangedTo="0"/>
        <edge id="-110295254#0" sampledSeconds="0.00" departed="0" arrived="0" entered="0" left="0" laneChangedFrom="0" laneChangedTo="0"/>
        <edge id="-110295254#1" sampledSeconds="0.00" departed="0" arrived="0" entered="0" left="0" laneChangedFrom="0" laneChangedTo="0"/>
        <edge id="-110295255" sampledSeconds="0.00" departed="0" arrived="0" entered="0" left="0" laneChangedFrom="0" laneChangedTo="0"/>
        <edge id="-110295256" sampledSeconds="0.00" departed="0" arrived="0" entered="0" left="0" laneChangedFrom="0" laneChangedTo="0"/>
        <edge id="-110295261" sampledSeconds="0.00" departed="0" arrived="0" entered="0" left="0" laneChangedFrom="0" laneChangedTo="0"/>
        <edge id="-110295262#0" sampledSeconds="0.00" departed="0" arrived="0" entered="0" left="0" laneChangedFrom="0" laneChangedTo="0"/>
        <edge id="-110295262#1" sampledSeconds="0.00" departed="0" arrived="0" entered="0" left="0" laneChangedFrom="0" laneChangedTo="0"/>
        <edge id="-140014359#0" sampledSeconds="32.34" traveltime="4.11" overlapTraveltime="5.42" density="0.10" laneDensity="0.10" occupancy="0.04" waitingTime="0.00" speed="3.57" departed="3" arrived="2" entered="4" left="5" laneChangedFrom="0" laneChangedTo="0"/>
        <edge id="-140014359#1" sampledSeconds="34.87" traveltime="6.26" overlapTraveltime="7.65" density="0.07" laneDensity="0.07" occupancy="0.03" waitingTime="0.00" speed="3.57" departed="2" arrived="1" entered="3" left="4" laneChangedFrom="0" laneChangedTo="0"/>
        <edge id="-140014359#2" sampledSeconds="492.64" traveltime="27.84" overlapTraveltime="29.25" density="0.22" laneDensity="0.22" occupancy="0.10" waitingTime="0.00" speed="3.74" departed="2" arrived="2" entered="15" left="15" laneChangedFrom="0" laneChangedTo="0"/>
        <edge id="-140014361#0" sampledSeconds="30.45" traveltime="9.79" overlapTraveltime="10.23" density="0.01" laneDensity="0.01" occupancy="0.01" waitingTime="0.00" speed="11.66" departed="0" arrived="3" entered="3" left="0" laneChangedFrom="0" laneChangedTo="0"/>
        <edge id="-140014361#1" sampledSeconds="57.45" traveltime="5.55" overlapTraveltime="6.50" density="0.06" laneDensity="0.06" occupancy="0.03" waitingTime="0.00" speed="7.41" departed="1" arrived="2" entered="8" left="7" laneChangedFrom="0" laneChangedTo="0"/>
        <edge id="-140014362" sampledSeconds="19.26" traveltime="9.42" overlapTraveltime="9.87" density="0.01" laneDensity="0.01" occupancy="0.00" waitingTime="0.00" speed="10.00" departed="0" arrived="2" entered="2" left="0" laneChangedFrom="0" laneChangedTo="0"/>
        <edge id="-140014363#0" sampledSeconds="149.00" traveltime="24.27" overlapTraveltime="25.50" density="0.07" laneDensity="0.07" occupancy="0.03" waitingTime="0.00" speed="4.03" departed="1" arrived="3" entered="5" left="3" laneChangedFrom="0" laneChangedTo="0"/>
        <edge id="-140014363#1" sampledSeconds="148.57" traveltime="23.89" overlapTraveltime="25.18" density="0.07" laneDensity="0.07" occupancy="0.03" waitingTime="0.00" speed="4.03" departed="2" arrived="0" entered="4" left="6" laneChangedFrom="0" laneChangedTo="0"/>
        <edge id="-140014363#2" sampledSeconds="37.17" traveltime="35.62" overlapTraveltime="37.17" density="0.01" laneDensity="0.01" occupancy="0.01" waitingTime="0.00" speed="3.78" departed="0" arrived="0" entered="1" left="1" laneChangedFrom="0" laneChangedTo="0"/>
        <edge id="-140014363#3" sampledSeconds="270.05" traveltime="8.96" overlapTraveltime="10.41" density="0.38" laneDensity="0.38" occupancy="0.17" waitingTime="0.00" speed="3.68" departed="6" arrived="2" entered="21" left="25" laneChangedFrom="0" laneChangedTo="0"/>
        <edge id="-140014364#0" sampledSeconds="87.34" traveltime="43.35" overlapTraveltime="43.83" density="0.01" laneDensity="0.01" occupancy="0.00" waitingTime="0.00" speed="10.37" departed="0" arrived="2" entered="2" left="0" laneChangedFrom="0" laneChangedTo="0"/>
        <edge id="-140014364#1" sampledSeconds="82.30" traveltime="11.39" overlapTraveltime="11.85" density="0.03" laneDensity="0.03" occupancy="0.02" waitingTime="0.00" speed="10.45" departed="0" arrived="5" entered="7" left="2" laneChangedFrom="0" laneChangedTo="0"/>
        <edge id="-140014364#2" sampledSeconds="199.84" traveltime="9.70" overlapTraveltime="10.66" density="0.11" laneDensity="0.11" occupancy="0.05" waitingTime="0.00" speed="8.50" departed="4" arrived="2" entered="15" left="17" laneChangedFrom="0" laneChangedTo="0"/>
        <edge id="-140014365" sampledSeconds="49.33" traveltime="24.53" overlapTraveltime="25.27" density="0.01" laneDensity="0.01" occupancy="0.01" waitingTime="0.00" speed="8.40" departed="2" arrived="0" entered="0" left="2" laneChangedFrom="0" laneChangedTo="0"/>
        <edge id="-140014366#0" sampledSeconds="13.23" traveltime="6.28" overlapTraveltime="6.74" density="0.01" laneDensity="0.01" occupancy="0.00" waitingTime="0.00" speed="10.51" departed="0" arrived="2" entered="2" left="0" laneChangedFrom="0" laneChangedTo="0"/>
        <edge id="-140014366#1" sampledSeconds="185.88" traveltime="10.22" overlapTraveltime="11.10" density="0.09" laneDensity="0.09" occupancy="0.04" waitingTime="0.00" speed="8.65" departed="4" arrived="4" entered="13" left="13" laneChangedFrom="0" laneChangedTo="0"/>
        <edge id="-140014368#0" sampledSeconds="469.36" traveltime="17.50" overlapTraveltime="18.94" density="0.69" laneDensity="0.69" occupancy="0.32" waitingTime="214.00" speed="1.92" departed="1" arrived="1" entered="24" left="24" laneChangedFrom="0" laneChangedTo="0"/>
        <edge id="-140014368#1" sampledSeconds="86.90" traveltime="20.80" overlapTraveltime="21.99" density="0.05" laneDensity="0.05" occupancy="0.02" waitingTime="0.00" speed="4.21" departed="0" arrived="2" entered="4" left="2" laneChangedFrom="0" laneChangedTo="0"/>
        <edge id="-140014369" sampledSeconds="145.89" traveltime="10.80" overlapTraveltime="11.41" density="0.08" laneDensity="0.08" occupancy="0.03" waitingTime="0.00" speed="8.31" departed="4" arrived="4" entered="9" left="9" laneChangedFrom="0" laneChangedTo="0"/>
        <edge id="-140014376#0" sampledSeconds="7.30" traveltime="6.80" overlapTraveltime="7.30" density="0.01" laneDensity="0.01" occupancy="0.00" waitingTime="0.00" speed="9.53" departed="0" arrived="1" entered="1" left="0" laneChangedFrom="0" laneChangedTo="0"/>
        <edge id="-140014376#1" sampledSeconds="117.79" traveltime="12.39" overlapTraveltime="13.15" density="0.05" laneDensity="0.05" occupancy="0.02" waitingTime="0.00" speed="9.40" departed="1" arrived="2" entered="8" left="7" laneChangedFrom="0" laneChangedTo="0"/>
        <edge id="-140014376#2" sampledSeconds="89.73" traveltime="9.24" overlapTraveltime="10.03" density="0.04" laneDensity="0.04" occupancy="0.02" waitingTime="0.00" speed="9.84" departed="1" arrived="0" entered="8" left="9" laneChangedFrom="0" laneChangedTo="0"/>
        <edge id="-140014376#3" sampledSeconds="74.08" traveltime="3.73" overlapTraveltime="4.52" density="0.11" laneDensity="0.11" occupancy="0.05" waitingTime="0.00" speed="7.95" departed="3" arrived="4" entered="14" left="13" laneChangedFrom="0" laneChangedTo="0"/>
        <edge id="-140014376#4" sampledSeconds="475.05" traveltime="16.65" overlapTraveltime="17.53" density="0.14" laneDensity="0.14" occupancy="0.07" waitingTime="0.00" speed="9.42" departed="3" arrived="0" entered="25" left="27" laneChangedFrom="0" laneChangedTo="0"/>
        <edge id="-140014378#0" sampledSeconds="265.24" traveltime="52.61" overlapTraveltime="53.90" density="0.06" laneDensity="0.06" occupancy="0.03" waitingTime="0.00" speed="3.91" departed="2" arrived="3" entered="3" left="2" laneChangedFrom="0" laneChangedTo="0"/>
        <edge id="-140014378#1" sampledSeconds="156.01" traveltime="16.33" overlapTraveltime="17.61" density="0.11" laneDensity="0.11" occupancy="0.05" waitingTime="0.00" speed="3.85" departed="0" arrived="4" entered="9" left="5" laneChangedFrom="0" laneChangedTo="0"/>
        <edge id="-140014379#0" sampledSeconds="172.66" traveltime="12.21" overlapTraveltime="13.51" density="0.22" laneDensity="0.22" occupancy="0.10" waitingTime="25.00" speed="3.06" departed="1" arrived="1" entered="12" left="12" laneChangedFrom="0" laneChangedTo="0"/>
        <edge id="-140014379#1" sampledSeconds="100.34" traveltime="19.44" overlapTraveltime="20.94" density="0.07" laneDensity="0.07" occupancy="0.03" waitingTime="0.00" speed="3.50" departed="3" arrived="0" entered="2" left="5" laneChangedFrom="0" laneChangedTo="0"/>
        <edge id="-140014379#2" sampledSeconds="316.76" traveltime="27.84" overlapTraveltime="29.29" density="0.14" laneDensity="0.14" occupancy="0.07" waitingTime="0.00" speed="3.69" departed="2" arrived="3" entered="9" left="8" laneChangedFrom="0" laneChangedTo="0"/>
        <edge id="-140014380#0" sampledSeconds="29.92" traveltime="4.47" overlapTraveltime="5.11" density="0.04" laneDensity="0.04" occupancy="0.02" waitingTime="0.00" speed="7.15" departed="1" arrived="0" entered="5" left="6" laneChangedFrom="0" laneChangedTo="0"/>
        <edge id="-140014380#2" sampledSeconds="43.50" traveltime="43.56" overlapTraveltime="44.00" density="0.00" laneDensity="0.00" occupancy="0.00" waitingTime="0.00" speed="10.21" departed="1" arrived="0" entered="0" left="1" laneChangedFrom="0" laneChangedTo="0"/>
        <edge id="-140014381#0" sampledSeconds="0.00" departed="0" arrived="0" entered="0" left="0" laneChangedFrom="0" laneChangedTo="0"/>
        <edge id="-140014381#1" sampledSeconds="0.00" departed="0" arrived="0" entered="0" left="0" laneChangedFrom="0" laneChangedTo="0"/>
        <edge id="-140014382#0" sampledSeconds="0.00" departed="0" arrived="0" entered="0" left="0" laneChangedFrom="0" laneChangedTo="0"/>
        <edge id="-140014382#10" sampledSeconds="0.00" departed="0" arrived="0" entered="0" left="0" laneChangedFrom="0" laneChangedTo="0"/>
        <edge id="-140014382#2" sampledSeconds="0.00" departed="0" arrived="0" entered="0" left="0" laneChangedFrom="0" laneChangedTo="0"/>
        <edge id="-140014382#3" sampledSeconds="0.00" departed="0" arrived="0" entered="0" left="0" laneChangedFrom="0" laneChangedTo="0"/>
        <edge id="-140014382#4" sampledSeconds="0.00" departed="0" arrived="0" entered="0" left="0" laneChangedFrom="0" laneChangedTo="0"/>
        <edge id="-140014382#5" sampledSeconds="0.00" departed="0" arrived="0" entered="0" left="0" laneChangedFrom="0" laneChangedTo="0"/>
        <edge id="-140014382#6" sampledSeconds="0.00" departed="0" arrived="0" entered="0" left="0" laneChangedFrom="0" laneChangedTo="0"/>
        <edge id="-140014382#7" sampledSeconds="0.00" departed="0" arrived="0" entered="0" left="0" laneChangedFrom="0" laneChangedTo="0"/>
        <edge id="-140014382#8" sampledSeconds="0.00" departed="0" arrived="0" entered="0" left="0" laneChangedFrom="0" laneChangedTo="0"/>
        <edge id="-140014382#9" sampledSeconds="0.00" departed="0" arrived="0" entered="0" left="0" laneChangedFrom="0" laneChangedTo="0"/>
        <edge id="-140014385#0" sampledSeconds="0.00" departed="0" arrived="0" entered="0" left="0" laneChangedFrom="0" laneChangedTo="0"/>
        <edge id="-140014385#1" sampledSeconds="0.00" departed="0" arrived="0" entered="0" left="0" laneChangedFrom="0" laneChangedTo="0"/>
        <edge id="-140014385#2" sampledSeconds="0.00" departed="0" arrived="0" entered="0" left="0" laneChangedFrom="0" laneChangedTo="0"/>
        <edge id="-140014386" sampledSeconds="0.00" departed="0" arrived="0" entered="0" left="0" laneChangedFrom="0" laneChangedTo="0"/>
        <edge id="-140014388" sampledSeconds="0.00" departed="0" arrived="0" entered="0" left="0" laneChangedFrom="0" laneChangedTo="0"/>
        <edge id="-140014390" sampledSeconds="0.00" departed="0" arrived="0" entered="0" left="0" laneChangedFrom="0" laneChangedTo="0"/>
        <edge id="-140014391" sampledSeconds="0.00" departed="0" arrived="0" entered="0" left="0" laneChangedFrom="0" laneChangedTo="0"/>
        <edge id="-140014395#0" sampledSeconds="0.00" departed="0" arrived="0" entered="0" left="0" laneChangedFrom="0" laneChangedTo="0"/>
        <edge id="-140014395#1" sampledSeconds="0.00" departed="0" arrived="0" entered="0" left="0" laneChangedFrom="0" laneChangedTo="0"/>
        <edge id="-140014395#2" sampledSeconds="0.00" departed="0" arrived="0" entered="0" left="0" laneChangedFrom="0" laneChangedTo="0"/>
        <edge id="-140014395#3" sampledSeconds="0.00" departed="0" arrived="0" entered="0" left="0" laneChangedFrom="0" laneChangedTo="0"/>
        <edge id="-140014395#4" sampledSeconds="0.00" departed="0" arrived="0" entered="0" left="0" laneChangedFrom="0" laneChangedTo="0"/>
        <edge id="-140014395#5" sampledSeconds="0.00" departed="0" arrived="0" entered="0" left="0" laneChangedFrom="0" laneChangedTo="0"/>
        <edge id="-140014395#6" sampledSeconds="0.00" departed="0" arrived="0" entered="0" left="0" laneChangedFrom="0" laneChangedTo="0"/>
        <edge id="-140014395#7" sampledSeconds="0.00" departed="0" arrived="0" entered="0" left="0" laneChangedFrom="0" laneChangedTo="0"/>
        <edge id="-144465165" sampledSeconds="0.00" departed="0" arrived="0" entered="0" left="0" laneChangedFrom="0" laneChangedTo="0"/>
        <edge id="-144465167" sampledSeconds="0.00" departed="0" arrived="0" entered="0" left="0" laneChangedFrom="0" laneChangedTo="0"/>
        <edge id="-144465168" sampledSeconds="0.00" departed="0" arrived="0" entered="0" left="0" laneChangedFrom="0" laneChangedTo="0"/>
        <edge id="-144465169" sampledSeconds="0.00" departed="0" arrived="0" entered="0" left="0" laneChangedFrom="0" laneChangedTo="0"/>
        <edge id="-144465170" sampledSeconds="0.00" departed="0" arrived="0" entered="0" left="0" laneChangedFrom="0" laneChangedTo="0"/>
        <edge id="-158855360#0" sampledSeconds="0.00" departed="0" arrived="0" entered="0" left="0" laneChangedFrom="0" laneChangedTo="0"/>
        <edge id="-171721973" sampledSeconds="0.00" departed="0" arrived="0" entered="0" left="0" laneChangedFrom="0" laneChangedTo="0"/>
        <edge id="-171731098" sampledSeconds="0.00" departed="0" arrived="0" entered="0" left="0" laneChangedFrom="0" laneChangedTo="0"/>
        <edge id="-171731099#0" sampledSeconds="308.76" traveltime="9.52" overlapTraveltime="10.36" density="0.12" laneDensity="0.12" occupancy="0.06" waitingTime="0.00" speed="11.67" departed="4" arrived="1" entered="26" left="29" laneChangedFrom="0" laneChangedTo="0"/>
        <edge id="-171731099#1" sampledSeconds="493.98" traveltime="14.94" overlapTraveltime="15.49" density="0.12" laneDensity="0.12" occupancy="0.06" waitingTime="0.00" speed="12.97" departed="4" arrived="2" entered="28" left="30" laneChangedFrom="0" laneChangedTo="0"/>