<?xml version="1.0" encoding="UTF-8"?>

<!-- generated on 10/12/20 23:05:24 by Eclipse SUMO GUI Version 1.7.0
<configuration xmlns:xsi="http://www.w3.org/2001/XMLSchema-instance" xsi:noNamespaceSchemaLocation="http://sumo.dlr.de/xsd/sumoConfiguration.xsd">

    <input>
        <net-file value="C:\Users\anike\Desktop\Education\George%20Mason%20University\Sem%204-Fall%20-%202020\CS%20695%20-%20Connected%20Autonomous%20Vehicles\Projects\1st%20mini%20project\Git_Repo\sumo_project\.\braddock.net.xml"/>
        <route-files value="C:\Users\anike\Desktop\Education\George%20Mason%20University\Sem%204-Fall%20-%202020\CS%20695%20-%20Connected%20Autonomous%20Vehicles\Projects\1st%20mini%20project\Git_Repo\sumo_project\.\braddock-flow.rou.xml,C:\Users\anike\Desktop\Education\George%20Mason%20University\Sem%204-Fall%20-%202020\CS%20695%20-%20Connected%20Autonomous%20Vehicles\Projects\1st%20mini%20project\Git_Repo\sumo_project\.\routes.routes.xml"/>
        <additional-files value="C:\Users\anike\Desktop\Education\George%20Mason%20University\Sem%204-Fall%20-%202020\CS%20695%20-%20Connected%20Autonomous%20Vehicles\Projects\1st%20mini%20project\Git_Repo\sumo_project\edgedata.additional.xml,C:\Users\anike\Desktop\Education\George%20Mason%20University\Sem%204-Fall%20-%202020\CS%20695%20-%20Connected%20Autonomous%20Vehicles\Projects\1st%20mini%20project\Git_Repo\sumo_project\tr_phase/twinbrook_dr/twinbrook_switch_actuated.xml,C:\Users\anike\Desktop\Education\George%20Mason%20University\Sem%204-Fall%20-%202020\CS%20695%20-%20Connected%20Autonomous%20Vehicles\Projects\1st%20mini%20project\Git_Repo\sumo_project\tr_phase/burke_lake/burke_lake_switch_actuated.xml,C:\Users\anike\Desktop\Education\George%20Mason%20University\Sem%204-Fall%20-%202020\CS%20695%20-%20Connected%20Autonomous%20Vehicles\Projects\1st%20mini%20project\Git_Repo\sumo_project\tr_phase/rolling_rd/rolling_rd_switch_actuated.xml,C:\Users\anike\Desktop\Education\George%20Mason%20University\Sem%204-Fall%20-%202020\CS%20695%20-%20Connected%20Autonomous%20Vehicles\Projects\1st%20mini%20project\Git_Repo\sumo_project\tr_phase/olley_ln/olley_ln_switch_actuated.xml,C:\Users\anike\Desktop\Education\George%20Mason%20University\Sem%204-Fall%20-%202020\CS%20695%20-%20Connected%20Autonomous%20Vehicles\Projects\1st%20mini%20project\Git_Repo\sumo_project\tr_phase/guinea_rd/guinea_rd_switch_actuated.xml,C:\Users\anike\Desktop\Education\George%20Mason%20University\Sem%204-Fall%20-%202020\CS%20695%20-%20Connected%20Autonomous%20Vehicles\Projects\1st%20mini%20project\Git_Repo\sumo_project\detectors/guinea_detector.xml,C:\Users\anike\Desktop\Education\George%20Mason%20University\Sem%204-Fall%20-%202020\CS%20695%20-%20Connected%20Autonomous%20Vehicles\Projects\1st%20mini%20project\Git_Repo\sumo_project\detectors/twinbrook_detector.xml,C:\Users\anike\Desktop\Education\George%20Mason%20University\Sem%204-Fall%20-%202020\CS%20695%20-%20Connected%20Autonomous%20Vehicles\Projects\1st%20mini%20project\Git_Repo\sumo_project\detectors/rolling_rd_detector.xml,C:\Users\anike\Desktop\Education\George%20Mason%20University\Sem%204-Fall%20-%202020\CS%20695%20-%20Connected%20Autonomous%20Vehicles\Projects\1st%20mini%20project\Git_Repo\sumo_project\detectors/burke_detector.xml,C:\Users\anike\Desktop\Education\George%20Mason%20University\Sem%204-Fall%20-%202020\CS%20695%20-%20Connected%20Autonomous%20Vehicles\Projects\1st%20mini%20project\Git_Repo\sumo_project\detectors/olley_detector.xml"/>
    </input>

    <time>
        <begin value="0"/>
        <end value="46800"/>
    </time>

</configuration>
-->

<meandata xmlns:xsi="http://www.w3.org/2001/XMLSchema-instance" xsi:noNamespaceSchemaLocation="http://sumo.dlr.de/xsd/meandata_file.xsd">
    <interval begin="32400.00" end="46800.00" id="measurements_edge__pm">
        <edge id="-110295195#0" sampledSeconds="0.00" departed="0" arrived="0" entered="0" left="0" laneChangedFrom="0" laneChangedTo="0"/>
        <edge id="-110295195#1" sampledSeconds="0.00" departed="0" arrived="0" entered="0" left="0" laneChangedFrom="0" laneChangedTo="0"/>
        <edge id="-110295196" sampledSeconds="0.00" departed="0" arrived="0" entered="0" left="0" laneChangedFrom="0" laneChangedTo="0"/>
        <edge id="-110295201" sampledSeconds="0.00" departed="0" arrived="0" entered="0" left="0" laneChangedFrom="0" laneChangedTo="0"/>
        <edge id="-110295204" sampledSeconds="0.00" departed="0" arrived="0" entered="0" left="0" laneChangedFrom="0" laneChangedTo="0"/>
        <edge id="-110295205#0" sampledSeconds="0.00" departed="0" arrived="0" entered="0" left="0" laneChangedFrom="0" laneChangedTo="0"/>
        <edge id="-110295205#1" sampledSeconds="0.00" departed="0" arrived="0" entered="0" left="0" laneChangedFrom="0" laneChangedTo="0"/>
        <edge id="-110295205#2" sampledSeconds="0.00" departed="0" arrived="0" entered="0" left="0" laneChangedFrom="0" laneChangedTo="0"/>
        <edge id="-110295205#3" sampledSeconds="0.00" departed="0" arrived="0" entered="0" left="0" laneChangedFrom="0" laneChangedTo="0"/>
        <edge id="-110295207#0" sampledSeconds="0.00" departed="0" arrived="0" entered="0" left="0" laneChangedFrom="0" laneChangedTo="0"/>
        <edge id="-110295207#1" sampledSeconds="0.00" departed="0" arrived="0" entered="0" left="0" laneChangedFrom="0" laneChangedTo="0"/>
        <edge id="-110295207#10" sampledSeconds="0.00" departed="0" arrived="0" entered="0" left="0" laneChangedFrom="0" laneChangedTo="0"/>
        <edge id="-110295207#11" sampledSeconds="0.00" departed="0" arrived="0" entered="0" left="0" laneChangedFrom="0" laneChangedTo="0"/>
        <edge id="-110295207#12" sampledSeconds="0.00" departed="0" arrived="0" entered="0" left="0" laneChangedFrom="0" laneChangedTo="0"/>
        <edge id="-110295207#13" sampledSeconds="0.00" departed="0" arrived="0" entered="0" left="0" laneChangedFrom="0" laneChangedTo="0"/>
        <edge id="-110295207#15" sampledSeconds="0.00" departed="0" arrived="0" entered="0" left="0" laneChangedFrom="0" laneChangedTo="0"/>
        <edge id="-110295207#17" sampledSeconds="0.00" departed="0" arrived="0" entered="0" left="0" laneChangedFrom="0" laneChangedTo="0"/>
        <edge id="-110295207#2" sampledSeconds="0.00" departed="0" arrived="0" entered="0" left="0" laneChangedFrom="0" laneChangedTo="0"/>
        <edge id="-110295207#3" sampledSeconds="0.00" departed="0" arrived="0" entered="0" left="0" laneChangedFrom="0" laneChangedTo="0"/>
        <edge id="-110295207#4" sampledSeconds="0.00" departed="0" arrived="0" entered="0" left="0" laneChangedFrom="0" laneChangedTo="0"/>
        <edge id="-110295207#5" sampledSeconds="0.00" departed="0" arrived="0" entered="0" left="0" laneChangedFrom="0" laneChangedTo="0"/>
        <edge id="-110295207#6" sampledSeconds="0.00" departed="0" arrived="0" entered="0" left="0" laneChangedFrom="0" laneChangedTo="0"/>
        <edge id="-110295207#7" sampledSeconds="0.00" departed="0" arrived="0" entered="0" left="0" laneChangedFrom="0" laneChangedTo="0"/>
        <edge id="-110295207#8" sampledSeconds="0.00" departed="0" arrived="0" entered="0" left="0" laneChangedFrom="0" laneChangedTo="0"/>
        <edge id="-110295207#9" sampledSeconds="0.00" departed="0" arrived="0" entered="0" left="0" laneChangedFrom="0" laneChangedTo="0"/>
        <edge id="-110295208" sampledSeconds="0.00" departed="0" arrived="0" entered="0" left="0" laneChangedFrom="0" laneChangedTo="0"/>
        <edge id="-110295209#2" sampledSeconds="0.00" departed="0" arrived="0" entered="0" left="0" laneChangedFrom="0" laneChangedTo="0"/>
        <edge id="-110295218" sampledSeconds="0.00" departed="0" arrived="0" entered="0" left="0" laneChangedFrom="0" laneChangedTo="0"/>
        <edge id="-110295219#0" sampledSeconds="0.00" departed="0" arrived="0" entered="0" left="0" laneChangedFrom="0" laneChangedTo="0"/>
        <edge id="-110295219#1" sampledSeconds="0.00" departed="0" arrived="0" entered="0" left="0" laneChangedFrom="0" laneChangedTo="0"/>
        <edge id="-110295219#3" sampledSeconds="0.00" departed="0" arrived="0" entered="0" left="0" laneChangedFrom="0" laneChangedTo="0"/>
        <edge id="-110295220" sampledSeconds="0.00" departed="0" arrived="0" entered="0" left="0" laneChangedFrom="0" laneChangedTo="0"/>
        <edge id="-110295223" sampledSeconds="0.00" departed="0" arrived="0" entered="0" left="0" laneChangedFrom="0" laneChangedTo="0"/>
        <edge id="-110295228" sampledSeconds="0.00" departed="0" arrived="0" entered="0" left="0" laneChangedFrom="0" laneChangedTo="0"/>
        <edge id="-110295232#0" sampledSeconds="0.00" departed="0" arrived="0" entered="0" left="0" laneChangedFrom="0" laneChangedTo="0"/>
        <edge id="-110295232#1" sampledSeconds="0.00" departed="0" arrived="0" entered="0" left="0" laneChangedFrom="0" laneChangedTo="0"/>
        <edge id="-110295232#2" sampledSeconds="0.00" departed="0" arrived="0" entered="0" left="0" laneChangedFrom="0" laneChangedTo="0"/>
        <edge id="-110295232#3" sampledSeconds="0.00" departed="0" arrived="0" entered="0" left="0" laneChangedFrom="0" laneChangedTo="0"/>
        <edge id="-110295232#4" sampledSeconds="0.00" departed="0" arrived="0" entered="0" left="0" laneChangedFrom="0" laneChangedTo="0"/>
        <edge id="-110295232#5" sampledSeconds="0.00" departed="0" arrived="0" entered="0" left="0" laneChangedFrom="0" laneChangedTo="0"/>
        <edge id="-110295232#6" sampledSeconds="0.00" departed="0" arrived="0" entered="0" left="0" laneChangedFrom="0" laneChangedTo="0"/>
        <edge id="-110295233" sampledSeconds="0.00" departed="0" arrived="0" entered="0" left="0" laneChangedFrom="0" laneChangedTo="0"/>
        <edge id="-110295234#0" sampledSeconds="0.00" departed="0" arrived="0" entered="0" left="0" laneChangedFrom="0" laneChangedTo="0"/>
        <edge id="-110295234#1" sampledSeconds="0.00" departed="0" arrived="0" entered="0" left="0" laneChangedFrom="0" laneChangedTo="0"/>
        <edge id="-110295235#0" sampledSeconds="0.00" departed="0" arrived="0" entered="0" left="0" laneChangedFrom="0" laneChangedTo="0"/>
        <edge id="-110295235#1" sampledSeconds="0.00" departed="0" arrived="0" entered="0" left="0" laneChangedFrom="0" laneChangedTo="0"/>
        <edge id="-110295237" sampledSeconds="0.00" departed="0" arrived="0" entered="0" left="0" laneChangedFrom="0" laneChangedTo="0"/>
        <edge id="-110295239" sampledSeconds="0.00" departed="0" arrived="0" entered="0" left="0" laneChangedFrom="0" laneChangedTo="0"/>
        <edge id="-110295241" sampledSeconds="0.00" departed="0" arrived="0" entered="0" left="0" laneChangedFrom="0" laneChangedTo="0"/>
        <edge id="-110295242" sampledSeconds="0.00" departed="0" arrived="0" entered="0" left="0" laneChangedFrom="0" laneChangedTo="0"/>
        <edge id="-110295243" sampledSeconds="0.00" departed="0" arrived="0" entered="0" left="0" laneChangedFrom="0" laneChangedTo="0"/>
        <edge id="-110295244#0" sampledSeconds="0.00" departed="0" arrived="0" entered="0" left="0" laneChangedFrom="0" laneChangedTo="0"/>
        <edge id="-110295244#1" sampledSeconds="0.00" departed="0" arrived="0" entered="0" left="0" laneChangedFrom="0" laneChangedTo="0"/>
        <edge id="-110295244#2" sampledSeconds="0.00" departed="0" arrived="0" entered="0" left="0" laneChangedFrom="0" laneChangedTo="0"/>
        <edge id="-110295244#3" sampledSeconds="0.00" departed="0" arrived="0" entered="0" left="0" laneChangedFrom="0" laneChangedTo="0"/>
        <edge id="-110295244#4" sampledSeconds="0.00" departed="0" arrived="0" entered="0" left="0" laneChangedFrom="0" laneChangedTo="0"/>
        <edge id="-110295244#5" sampledSeconds="0.00" departed="0" arrived="0" entered="0" left="0" laneChangedFrom="0" laneChangedTo="0"/>
        <edge id="-110295244#6" sampledSeconds="0.00" departed="0" arrived="0" entered="0" left="0" laneChangedFrom="0" laneChangedTo="0"/>
        <edge id="-110295244#7" sampledSeconds="0.00" departed="0" arrived="0" entered="0" left="0" laneChangedFrom="0" laneChangedTo="0"/>
        <edge id="-110295248" sampledSeconds="0.00" departed="0" arrived="0" entered="0" left="0" laneChangedFrom="0" laneChangedTo="0"/>
        <edge id="-110295249" sampledSeconds="0.00" departed="0" arrived="0" entered="0" left="0" laneChangedFrom="0" laneChangedTo="0"/>
        <edge id="-110295250" sampledSeconds="0.00" departed="0" arrived="0" entered="0" left="0" laneChangedFrom="0" laneChangedTo="0"/>
        <edge id="-110295251#10" sampledSeconds="192.42" traveltime="5.54" overlapTraveltime="6.23" density="0.24" laneDensity="0.24" occupancy="0.11" waitingTime="1.00" speed="9.83" departed="1" arrived="2" entered="30" left="29" laneChangedFrom="0" laneChangedTo="0"/>
        <edge id="-110295251#2" sampledSeconds="101.17" traveltime="16.38" overlapTraveltime="17.08" density="0.11" laneDensity="0.11" occupancy="0.05" waitingTime="56.00" speed="3.89" departed="1" arrived="2" entered="5" left="4" laneChangedFrom="0" laneChangedTo="0"/>
        <edge id="-110295251#3" sampledSeconds="127.15" traveltime="7.25" overlapTraveltime="8.01" density="0.12" laneDensity="0.12" occupancy="0.06" waitingTime="0.00" speed="9.59" departed="2" arrived="1" entered="14" left="15" laneChangedFrom="0" laneChangedTo="0"/>
        <edge id="-110295251#4" sampledSeconds="86.30" traveltime="13.77" overlapTraveltime="14.55" density="0.04" laneDensity="0.04" occupancy="0.02" waitingTime="0.00" speed="10.23" departed="2" arrived="1" entered="4" left="5" laneChangedFrom="0" laneChangedTo="0"/>
        <edge id="-110295251#5" sampledSeconds="62.09" traveltime="11.90" overlapTraveltime="12.44" density="0.03" laneDensity="0.03" occupancy="0.01" waitingTime="0.00" speed="12.47" departed="0" arrived="1" entered="5" left="4" laneChangedFrom="0" laneChangedTo="0"/>
        <edge id="-110295251#6" sampledSeconds="515.73" traveltime="23.74" overlapTraveltime="24.56" density="0.12" laneDensity="0.12" occupancy="0.06" waitingTime="0.00" speed="12.22" departed="0" arrived="2" entered="21" left="19" laneChangedFrom="0" laneChangedTo="0"/>
        <edge id="-110295251#7" sampledSeconds="273.07" traveltime="14.51" overlapTraveltime="15.23" density="0.11" laneDensity="0.11" occupancy="0.05" waitingTime="0.00" speed="11.77" departed="2" arrived="3" entered="16" left="15" laneChangedFrom="0" laneChangedTo="0"/>
        <edge id="-110295251#8" sampledSeconds="412.88" traveltime="18.10" overlapTraveltime="18.78" density="0.13" laneDensity="0.13" occupancy="0.06" waitingTime="0.00" speed="12.44" departed="0" arrived="1" entered="22" left="21" laneChangedFrom="0" laneChangedTo="0"/>
        <edge id="-110295252" sampledSeconds="0.00" departed="0" arrived="0" entered="0" left="0" laneChangedFrom="0" laneChangedTo="0"/>
        <edge id="-110295253#2" sampledSeconds="0.00" departed="0" arrived="0" entered="0" left="0" laneChangedFrom="0" laneChangedTo="0"/>
        <edge id="-110295253#3" sampledSeconds="0.00" departed="0" arrived="0" entered="0" left="0" laneChangedFrom="0" laneChangedTo="0"/>
        <edge id="-110295253#4" sampledSeconds="0.00" departed="0" arrived="0" entered="0" left="0" laneChangedFrom="0" laneChangedTo="0"/>
        <edge id="-110295254#0" sampledSeconds="0.00" departed="0" arrived="0" entered="0" left="0" laneChangedFrom="0" laneChangedTo="0"/>
        <edge id="-110295254#1" sampledSeconds="0.00" departed="0" arrived="0" entered="0" left="0" laneChangedFrom="0" laneChangedTo="0"/>
        <edge id="-110295255" sampledSeconds="0.00" departed="0" arrived="0" entered="0" left="0" laneChangedFrom="0" laneChangedTo="0"/>
        <edge id="-110295256" sampledSeconds="0.00" departed="0" arrived="0" entered="0" left="0" laneChangedFrom="0" laneChangedTo="0"/>
        <edge id="-110295261" sampledSeconds="0.00" departed="0" arrived="0" entered="0" left="0" laneChangedFrom="0" laneChangedTo="0"/>
        <edge id="-110295262#0" sampledSeconds="0.00" departed="0" arrived="0" entered="0" left="0" laneChangedFrom="0" laneChangedTo="0"/>
        <edge id="-110295262#1" sampledSeconds="0.00" departed="0" arrived="0" entered="0" left="0" laneChangedFrom="0" laneChangedTo="0"/>
        <edge id="-140014359#0" sampledSeconds="24.92" traveltime="4.18" overlapTraveltime="5.57" density="0.12" laneDensity="0.12" occupancy="0.05" waitingTime="0.00" speed="3.47" departed="2" arrived="0" entered="3" left="5" laneChangedFrom="0" laneChangedTo="0"/>
        <edge id="-140014359#1" sampledSeconds="20.41" traveltime="7.05" overlapTraveltime="8.36" density="0.06" laneDensity="0.06" occupancy="0.03" waitingTime="0.00" speed="3.27" departed="3" arrived="0" entered="0" left="3" laneChangedFrom="0" laneChangedTo="0"/>
        <edge id="-140014359#2" sampledSeconds="55.62" traveltime="26.54" overlapTraveltime="27.81" density="0.04" laneDensity="0.04" occupancy="0.02" waitingTime="0.00" speed="3.93" departed="0" arrived="0" entered="2" left="2" laneChangedFrom="0" laneChangedTo="0"/>
        <edge id="-140014361#0" sampledSeconds="66.42" traveltime="10.66" overlapTraveltime="11.12" density="0.04" laneDensity="0.04" occupancy="0.02" waitingTime="0.00" speed="10.72" departed="0" arrived="6" entered="6" left="0" laneChangedFrom="0" laneChangedTo="0"/>
        <edge id="-140014361#1" sampledSeconds="86.55" traveltime="5.81" overlapTraveltime="6.78" density="0.14" laneDensity="0.14" occupancy="0.06" waitingTime="0.00" speed="7.10" departed="2" arrived="2" entered="11" left="11" laneChangedFrom="0" laneChangedTo="0"/>
        <edge id="-140014362" sampledSeconds="21.73" traveltime="10.45" overlapTraveltime="10.98" density="0.02" laneDensity="0.02" occupancy="0.01" waitingTime="0.00" speed="8.99" departed="0" arrived="2" entered="2" left="0" laneChangedFrom="0" laneChangedTo="0"/>
        <edge id="-140014363#0" sampledSeconds="231.16" traveltime="28.07" overlapTraveltime="29.43" density="0.16" laneDensity="0.16" occupancy="0.08" waitingTime="0.00" speed="3.49" departed="2" arrived="1" entered="6" left="7" laneChangedFrom="0" laneChangedTo="0"/>
        <edge id="-140014363#1" sampledSeconds="199.36" traveltime="28.11" overlapTraveltime="29.54" density="0.14" laneDensity="0.14" occupancy="0.07" waitingTime="0.00" speed="3.43" departed="5" arrived="0" entered="2" left="7" laneChangedFrom="0" laneChangedTo="0"/>
        <edge id="-140014363#2" sampledSeconds="33.32" traveltime="33.15" overlapTraveltime="34.37" density="0.02" laneDensity="0.02" occupancy="0.01" waitingTime="0.00" speed="4.09" departed="0" arrived="1" entered="1" left="0" laneChangedFrom="0" laneChangedTo="0"/>
        <edge id="-140014363#3" sampledSeconds="67.15" traveltime="8.53" overlapTraveltime="9.92" density="0.14" laneDensity="0.14" occupancy="0.06" waitingTime="0.00" speed="3.86" departed="1" arrived="1" entered="6" left="6" laneChangedFrom="0" laneChangedTo="0"/>
        <edge id="-140014364#0" sampledSeconds="80.15" traveltime="39.74" overlapTraveltime="40.18" density="0.01" laneDensity="0.01" occupancy="0.01" waitingTime="0.00" speed="11.31" departed="0" arrived="2" entered="2" left="0" laneChangedFrom="0" laneChangedTo="0"/>
        <edge id="-140014364#1" sampledSeconds="47.16" traveltime="11.08" overlapTraveltime="11.88" density="0.03" laneDensity="0.03" occupancy="0.01" waitingTime="0.00" speed="10.42" departed="0" arrived="1" entered="4" left="3" laneChangedFrom="0" laneChangedTo="0"/>
        <edge id="-140014364#2" sampledSeconds="121.74" traveltime="9.43" overlapTraveltime="10.24" density="0.10" laneDensity="0.10" occupancy="0.05" waitingTime="0.00" speed="8.85" departed="1" arrived="2" entered="11" left="10" laneChangedFrom="0" laneChangedTo="0"/>
        <edge id="-140014365" sampledSeconds="21.91" traveltime="21.87" overlapTraveltime="22.45" density="0.01" laneDensity="0.01" occupancy="0.00" waitingTime="0.00" speed="9.45" departed="1" arrived="0" entered="0" left="1" laneChangedFrom="0" laneChangedTo="0"/>
        <edge id="-140014366#0" sampledSeconds="13.82" traveltime="6.44" overlapTraveltime="6.91" density="0.01" laneDensity="0.01" occupancy="0.01" waitingTime="0.00" speed="10.25" departed="0" arrived="2" entered="2" left="0" laneChangedFrom="0" laneChangedTo="0"/>
        <edge id="-140014366#1" sampledSeconds="150.30" traveltime="9.98" overlapTraveltime="10.82" density="0.11" laneDensity="0.11" occupancy="0.05" waitingTime="0.00" speed="8.87" departed="1" arrived="2" entered="13" left="12" laneChangedFrom="0" laneChangedTo="0"/>
        <edge id="-140014368#0" sampledSeconds="275.48" traveltime="17.30" overlapTraveltime="18.65" density="0.61" laneDensity="0.61" occupancy="0.29" waitingTime="120.00" speed="1.94" departed="1" arrived="1" entered="14" left="14" laneChangedFrom="0" laneChangedTo="0"/>
        <edge id="-140014368#1" sampledSeconds="146.12" traveltime="23.30" overlapTraveltime="24.59" density="0.12" laneDensity="0.12" occupancy="0.05" waitingTime="0.00" speed="3.77" departed="0" arrived="2" entered="6" left="4" laneChangedFrom="0" laneChangedTo="0"/>
        <edge id="-140014369" sampledSeconds="66.57" traveltime="10.63" overlapTraveltime="11.27" density="0.05" laneDensity="0.05" occupancy="0.02" waitingTime="0.00" speed="8.41" departed="1" arrived="3" entered="5" left="3" laneChangedFrom="0" laneChangedTo="0"/>
        <edge id="-140014376#0" sampledSeconds="7.01" traveltime="6.93" overlapTraveltime="7.47" density="0.01" laneDensity="0.01" occupancy="0.00" waitingTime="0.00" speed="9.31" departed="0" arrived="1" entered="1" left="0" laneChangedFrom="0" laneChangedTo="0"/>
        <edge id="-140014376#1" sampledSeconds="119.36" traveltime="13.97" overlapTraveltime="15.47" density="0.07" laneDensity="0.07" occupancy="0.03" waitingTime="0.00" speed="7.99" departed="6" arrived="2" entered="2" left="6" laneChangedFrom="0" laneChangedTo="0"/>
        <edge id="-140014376#2" sampledSeconds="76.39" traveltime="9.99" overlapTraveltime="10.99" density="0.06" laneDensity="0.06" occupancy="0.03" waitingTime="0.00" speed="8.98" departed="1" arrived="2" entered="6" left="5" laneChangedFrom="0" laneChangedTo="0"/>
        <edge id="-140014376#3" sampledSeconds="40.74" traveltime="3.15" overlapTraveltime="3.72" density="0.09" laneDensity="0.09" occupancy="0.04" waitingTime="0.00" speed="9.65" departed="0" arrived="4" entered="11" left="7" laneChangedFrom="0" laneChangedTo="0"/>
        <edge id="-140014376#4" sampledSeconds="421.30" traveltime="17.60" overlapTraveltime="18.52" density="0.18" laneDensity="0.18" occupancy="0.09" waitingTime="0.00" speed="8.92" departed="2" arrived="0" entered="20" left="23" laneChangedFrom="0" laneChangedTo="0"/>
        <edge id="-140014378#0" sampledSeconds="164.69" traveltime="54.78" overlapTraveltime="56.14" density="0.06" laneDensity="0.06" occupancy="0.03" waitingTime="0.00" speed="3.75" departed="2" arrived="1" entered="1" left="2" laneChangedFrom="0" laneChangedTo="0"/>
        <edge id="-140014378#1" sampledSeconds="82.00" traveltime="15.51" overlapTraveltime="16.65" density="0.09" laneDensity="0.09" occupancy="0.04" waitingTime="0.00" speed="4.08" departed="1" arrived="0" entered="4" left="5" laneChangedFrom="0" laneChangedTo="0"/>
        <edge id="-140014379#0" sampledSeconds="127.91" traveltime="11.83" overlapTraveltime="12.95" density="0.24" laneDensity="0.24" occupancy="0.11" waitingTime="22.00" speed="3.19" departed="1" arrived="0" entered="9" left="10" laneChangedFrom="0" laneChangedTo="0"/>
        <edge id="-140014379#1" sampledSeconds="55.60" traveltime="17.85" overlapTraveltime="19.17" density="0.06" laneDensity="0.06" occupancy="0.03" waitingTime="0.00" speed="3.83" departed="1" arrived="1" entered="2" left="2" laneChangedFrom="0" laneChangedTo="0"/>
        <edge id="-140014379#2" sampledSeconds="223.54" traveltime="27.08" overlapTraveltime="28.42" density="0.15" laneDensity="0.15" occupancy="0.07" waitingTime="0.00" speed="3.80" departed="0" arrived="5" entered="8" left="3" laneChangedFrom="0" laneChangedTo="0"/>
        <edge id="-140014380#0" sampledSeconds="19.60" traveltime="4.56" overlapTraveltime="5.23" density="0.04" laneDensity="0.04" occupancy="0.02" waitingTime="0.00" speed="6.97" departed="1" arrived="2" entered="3" left="2" laneChangedFrom="0" laneChangedTo="0"/>
        <edge id="-140014380#2" sampledSeconds="0.00" departed="0" arrived="0" entered="0" left="0" laneChangedFrom="0" laneChangedTo="0"/>
        <edge id="-140014381#0" sampledSeconds="0.00" departed="0" arrived="0" entered="0" left="0" laneChangedFrom="0" laneChangedTo="0"/>
        <edge id="-140014381#1" sampledSeconds="0.00" departed="0" arrived="0" entered="0" left="0" laneChangedFrom="0" laneChangedTo="0"/>
        <edge id="-140014382#0" sampledSeconds="0.00" departed="0" arrived="0" entered="0" left="0" laneChangedFrom="0" laneChangedTo="0"/>
        <edge id="-140014382#10" sampledSeconds="0.00" departed="0" arrived="0" entered="0" left="0" laneChangedFrom="0" laneChangedTo="0"/>
        <edge id="-140014382#2" sampledSeconds="0.00" departed="0" arrived="0" entered="0" left="0" laneChangedFrom="0" laneChangedTo="0"/>
        <edge id="-140014382#3" sampledSeconds="0.00" departed="0" arrived="0" entered="0" left="0" laneChangedFrom="0" laneChangedTo="0"/>
        <edge id="-140014382#4" sampledSeconds="0.00" departed="0" arrived="0" entered="0" left="0" laneChangedFrom="0" laneChangedTo="0"/>
        <edge id="-140014382#5" sampledSeconds="0.00" departed="0" arrived="0" entered="0" left="0" laneChangedFrom="0" laneChangedTo="0"/>
        <edge id="-140014382#6" sampledSeconds="0.00" departed="0" arrived="0" entered="0" left="0" laneChangedFrom="0" laneChangedTo="0"/>
        <edge id="-140014382#7" sampledSeconds="0.00" departed="0" arrived="0" entered="0" left="0" laneChangedFrom="0" laneChangedTo="0"/>
        <edge id="-140014382#8" sampledSeconds="0.00" departed="0" arrived="0" entered="0" left="0" laneChangedFrom="0" laneChangedTo="0"/>
        <edge id="-140014382#9" sampledSeconds="0.00" departed="0" arrived="0" entered="0" left="0" laneChangedFrom="0" laneChangedTo="0"/>
        <edge id="-140014385#0" sampledSeconds="0.00" departed="0" arrived="0" entered="0" left="0" laneChangedFrom="0" laneChangedTo="0"/>
        <edge id="-140014385#1" sampledSeconds="0.00" departed="0" arrived="0" entered="0" left="0" laneChangedFrom="0" laneChangedTo="0"/>
        <edge id="-140014385#2" sampledSeconds="0.00" departed="0" arrived="0" entered="0" left="0" laneChangedFrom="0" laneChangedTo="0"/>
        <edge id="-140014386" sampledSeconds="0.00" departed="0" arrived="0" entered="0" left="0" laneChangedFrom="0" laneChangedTo="0"/>
        <edge id="-140014388" sampledSeconds="0.00" departed="0" arrived="0" entered="0" left="0" laneChangedFrom="0" laneChangedTo="0"/>
        <edge id="-140014390" sampledSeconds="0.00" departed="0" arrived="0" entered="0" left="0" laneChangedFrom="0" laneChangedTo="0"/>
        <edge id="-140014391" sampledSeconds="0.00" departed="0" arrived="0" entered="0" left="0" laneChangedFrom="0" laneChangedTo="0"/>
        <edge id="-140014395#0" sampledSeconds="0.00" departed="0" arrived="0" entered="0" left="0" laneChangedFrom="0" laneChangedTo="0"/>
        <edge id="-140014395#1" sampledSeconds="0.00" departed="0" arrived="0" entered="0" left="0" laneChangedFrom="0" laneChangedTo="0"/>
        <edge id="-140014395#2" sampledSeconds="0.00" departed="0" arrived="0" entered="0" left="0" laneChangedFrom="0" laneChangedTo="0"/>
        <edge id="-140014395#3" sampledSeconds="0.00" departed="0" arrived="0" entered="0" left="0" laneChangedFrom="0" laneChangedTo="0"/>
        <edge id="-140014395#4" sampledSeconds="0.00" departed="0" arrived="0" entered="0" left="0" laneChangedFrom="0" laneChangedTo="0"/>
        <edge id="-140014395#5" sampledSeconds="0.00" departed="0" arrived="0" entered="0" left="0" laneChangedFrom="0" laneChangedTo="0"/>
        <edge id="-140014395#6" sampledSeconds="0.00" departed="0" arrived="0" entered="0" left="0" laneChangedFrom="0" laneChangedTo="0"/>
        <edge id="-140014395#7" sampledSeconds="0.00" departed="0" arrived="0" entered="0" left="0" laneChangedFrom="0" laneChangedTo="0"/>
        <edge id="-144465165" sampledSeconds="0.00" departed="0" arrived="0" entered="0" left="0" laneChangedFrom="0" laneChangedTo="0"/>
        <edge id="-144465167" sampledSeconds="0.00" departed="0" arrived="0" entered="0" left="0" laneChangedFrom="0" laneChangedTo="0"/>
        <edge id="-144465168" sampledSeconds="0.00" departed="0" arrived="0" entered="0" left="0" laneChangedFrom="0" laneChangedTo="0"/>
        <edge id="-144465169" sampledSeconds="0.00" departed="0" arrived="0" entered="0" left="0" laneChangedFrom="0" laneChangedTo="0"/>
        <edge id="-144465170" sampledSeconds="0.00" departed="0" arrived="0" entered="0" left="0" laneChangedFrom="0" laneChangedTo="0"/>
        <edge id="-158855360#0" sampledSeconds="0.00" departed="0" arrived="0" entered="0" left="0" laneChangedFrom="0" laneChangedTo="0"/>
        <edge id="-171721973" sampledSeconds="0.00" departed="0" arrived="0" entered="0" left="0" laneChangedFrom="0" laneChangedTo="0"/>
        <edge id="-171731098" sampledSeconds="0.00" departed="0" arrived="0" entered="0" left="0" laneChangedFrom="0" laneChangedTo="0"/>
        <edge id="-171731099#0" sampledSeconds="164.93" traveltime="9.57" overlapTraveltime="10.34" density="0.10" laneDensity="0.10" occupancy="0.05" waitingTime="0.00" speed="11.68" departed="1" arrived="1" entered="15" left="15" laneChangedFrom="0" laneChangedTo="0"/>
        <edge id="-171731099#1" sampledSeconds="309.98" traveltime="15.73" overlapTraveltime="16.36" density="0.11" laneDensity="0.11" occupancy="0.05" waitingTime="0.00" speed="12.27" departed="2" arrived="0" entered="17" left="19" laneChangedFrom="0" laneChangedTo="0"/>