<?xml version="1.0" encoding="UTF-8"?>

<!-- generated on 10/12/20 23:05:24 by Eclipse SUMO GUI Version 1.7.0
<configuration xmlns:xsi="http://www.w3.org/2001/XMLSchema-instance" xsi:noNamespaceSchemaLocation="http://sumo.dlr.de/xsd/sumoConfiguration.xsd">

    <input>
        <net-file value="C:\Users\anike\Desktop\Education\George%20Mason%20University\Sem%204-Fall%20-%202020\CS%20695%20-%20Connected%20Autonomous%20Vehicles\Projects\1st%20mini%20project\Git_Repo\sumo_project\.\braddock.net.xml"/>
        <route-files value="C:\Users\anike\Desktop\Education\George%20Mason%20University\Sem%204-Fall%20-%202020\CS%20695%20-%20Connected%20Autonomous%20Vehicles\Projects\1st%20mini%20project\Git_Repo\sumo_project\.\braddock-flow.rou.xml,C:\Users\anike\Desktop\Education\George%20Mason%20University\Sem%204-Fall%20-%202020\CS%20695%20-%20Connected%20Autonomous%20Vehicles\Projects\1st%20mini%20project\Git_Repo\sumo_project\.\routes.routes.xml"/>
        <additional-files value="C:\Users\anike\Desktop\Education\George%20Mason%20University\Sem%204-Fall%20-%202020\CS%20695%20-%20Connected%20Autonomous%20Vehicles\Projects\1st%20mini%20project\Git_Repo\sumo_project\edgedata.additional.xml,C:\Users\anike\Desktop\Education\George%20Mason%20University\Sem%204-Fall%20-%202020\CS%20695%20-%20Connected%20Autonomous%20Vehicles\Projects\1st%20mini%20project\Git_Repo\sumo_project\tr_phase/twinbrook_dr/twinbrook_switch_actuated.xml,C:\Users\anike\Desktop\Education\George%20Mason%20University\Sem%204-Fall%20-%202020\CS%20695%20-%20Connected%20Autonomous%20Vehicles\Projects\1st%20mini%20project\Git_Repo\sumo_project\tr_phase/burke_lake/burke_lake_switch_actuated.xml,C:\Users\anike\Desktop\Education\George%20Mason%20University\Sem%204-Fall%20-%202020\CS%20695%20-%20Connected%20Autonomous%20Vehicles\Projects\1st%20mini%20project\Git_Repo\sumo_project\tr_phase/rolling_rd/rolling_rd_switch_actuated.xml,C:\Users\anike\Desktop\Education\George%20Mason%20University\Sem%204-Fall%20-%202020\CS%20695%20-%20Connected%20Autonomous%20Vehicles\Projects\1st%20mini%20project\Git_Repo\sumo_project\tr_phase/olley_ln/olley_ln_switch_actuated.xml,C:\Users\anike\Desktop\Education\George%20Mason%20University\Sem%204-Fall%20-%202020\CS%20695%20-%20Connected%20Autonomous%20Vehicles\Projects\1st%20mini%20project\Git_Repo\sumo_project\tr_phase/guinea_rd/guinea_rd_switch_actuated.xml,C:\Users\anike\Desktop\Education\George%20Mason%20University\Sem%204-Fall%20-%202020\CS%20695%20-%20Connected%20Autonomous%20Vehicles\Projects\1st%20mini%20project\Git_Repo\sumo_project\detectors/guinea_detector.xml,C:\Users\anike\Desktop\Education\George%20Mason%20University\Sem%204-Fall%20-%202020\CS%20695%20-%20Connected%20Autonomous%20Vehicles\Projects\1st%20mini%20project\Git_Repo\sumo_project\detectors/twinbrook_detector.xml,C:\Users\anike\Desktop\Education\George%20Mason%20University\Sem%204-Fall%20-%202020\CS%20695%20-%20Connected%20Autonomous%20Vehicles\Projects\1st%20mini%20project\Git_Repo\sumo_project\detectors/rolling_rd_detector.xml,C:\Users\anike\Desktop\Education\George%20Mason%20University\Sem%204-Fall%20-%202020\CS%20695%20-%20Connected%20Autonomous%20Vehicles\Projects\1st%20mini%20project\Git_Repo\sumo_project\detectors/burke_detector.xml,C:\Users\anike\Desktop\Education\George%20Mason%20University\Sem%204-Fall%20-%202020\CS%20695%20-%20Connected%20Autonomous%20Vehicles\Projects\1st%20mini%20project\Git_Repo\sumo_project\detectors/olley_detector.xml"/>
    </input>

    <time>
        <begin value="0"/>
        <end value="46800"/>
    </time>

</configuration>
-->

<meandata xmlns:xsi="http://www.w3.org/2001/XMLSchema-instance" xsi:noNamespaceSchemaLocation="http://sumo.dlr.de/xsd/meandata_file.xsd">
    <interval begin="0.00" end="10800.00" id="measurements_lane_am">
        <edge id="-110295195#0">
            <lane id="-110295195#0_0" sampledSeconds="0.00" departed="0" arrived="0" entered="0" left="0" laneChangedFrom="0" laneChangedTo="0"/>
        </edge>
        <edge id="-110295195#1">
            <lane id="-110295195#1_0" sampledSeconds="0.00" departed="0" arrived="0" entered="0" left="0" laneChangedFrom="0" laneChangedTo="0"/>
        </edge>
        <edge id="-110295196">
            <lane id="-110295196_0" sampledSeconds="0.00" departed="0" arrived="0" entered="0" left="0" laneChangedFrom="0" laneChangedTo="0"/>
        </edge>
        <edge id="-110295201">
            <lane id="-110295201_0" sampledSeconds="0.00" departed="0" arrived="0" entered="0" left="0" laneChangedFrom="0" laneChangedTo="0"/>
        </edge>
        <edge id="-110295204">
            <lane id="-110295204_0" sampledSeconds="0.00" departed="0" arrived="0" entered="0" left="0" laneChangedFrom="0" laneChangedTo="0"/>
        </edge>
        <edge id="-110295205#0">
            <lane id="-110295205#0_0" sampledSeconds="0.00" departed="0" arrived="0" entered="0" left="0" laneChangedFrom="0" laneChangedTo="0"/>
        </edge>
        <edge id="-110295205#1">
            <lane id="-110295205#1_0" sampledSeconds="0.00" departed="0" arrived="0" entered="0" left="0" laneChangedFrom="0" laneChangedTo="0"/>
        </edge>
        <edge id="-110295205#2">
            <lane id="-110295205#2_0" sampledSeconds="0.00" departed="0" arrived="0" entered="0" left="0" laneChangedFrom="0" laneChangedTo="0"/>
        </edge>
        <edge id="-110295205#3">
            <lane id="-110295205#3_0" sampledSeconds="0.00" departed="0" arrived="0" entered="0" left="0" laneChangedFrom="0" laneChangedTo="0"/>
        </edge>
        <edge id="-110295207#0">
            <lane id="-110295207#0_0" sampledSeconds="0.00" departed="0" arrived="0" entered="0" left="0" laneChangedFrom="0" laneChangedTo="0"/>
        </edge>
        <edge id="-110295207#1">
            <lane id="-110295207#1_0" sampledSeconds="0.00" departed="0" arrived="0" entered="0" left="0" laneChangedFrom="0" laneChangedTo="0"/>
        </edge>
        <edge id="-110295207#10">
            <lane id="-110295207#10_0" sampledSeconds="0.00" departed="0" arrived="0" entered="0" left="0" laneChangedFrom="0" laneChangedTo="0"/>
        </edge>
        <edge id="-110295207#11">
            <lane id="-110295207#11_0" sampledSeconds="0.00" departed="0" arrived="0" entered="0" left="0" laneChangedFrom="0" laneChangedTo="0"/>
        </edge>
        <edge id="-110295207#12">
            <lane id="-110295207#12_0" sampledSeconds="0.00" departed="0" arrived="0" entered="0" left="0" laneChangedFrom="0" laneChangedTo="0"/>
        </edge>
        <edge id="-110295207#13">
            <lane id="-110295207#13_0" sampledSeconds="0.00" departed="0" arrived="0" entered="0" left="0" laneChangedFrom="0" laneChangedTo="0"/>
        </edge>
        <edge id="-110295207#15">
            <lane id="-110295207#15_0" sampledSeconds="0.00" departed="0" arrived="0" entered="0" left="0" laneChangedFrom="0" laneChangedTo="0"/>
        </edge>
        <edge id="-110295207#17">
            <lane id="-110295207#17_0" sampledSeconds="0.00" departed="0" arrived="0" entered="0" left="0" laneChangedFrom="0" laneChangedTo="0"/>
        </edge>
        <edge id="-110295207#2">
            <lane id="-110295207#2_0" sampledSeconds="0.00" departed="0" arrived="0" entered="0" left="0" laneChangedFrom="0" laneChangedTo="0"/>
        </edge>
        <edge id="-110295207#3">
            <lane id="-110295207#3_0" sampledSeconds="0.00" departed="0" arrived="0" entered="0" left="0" laneChangedFrom="0" laneChangedTo="0"/>
        </edge>
        <edge id="-110295207#4">
            <lane id="-110295207#4_0" sampledSeconds="0.00" departed="0" arrived="0" entered="0" left="0" laneChangedFrom="0" laneChangedTo="0"/>
        </edge>
        <edge id="-110295207#5">
            <lane id="-110295207#5_0" sampledSeconds="0.00" departed="0" arrived="0" entered="0" left="0" laneChangedFrom="0" laneChangedTo="0"/>
        </edge>
        <edge id="-110295207#6">
            <lane id="-110295207#6_0" sampledSeconds="0.00" departed="0" arrived="0" entered="0" left="0" laneChangedFrom="0" laneChangedTo="0"/>
        </edge>
        <edge id="-110295207#7">
            <lane id="-110295207#7_0" sampledSeconds="0.00" departed="0" arrived="0" entered="0" left="0" laneChangedFrom="0" laneChangedTo="0"/>
        </edge>
        <edge id="-110295207#8">
            <lane id="-110295207#8_0" sampledSeconds="0.00" departed="0" arrived="0" entered="0" left="0" laneChangedFrom="0" laneChangedTo="0"/>
        </edge>
        <edge id="-110295207#9">
            <lane id="-110295207#9_0" sampledSeconds="0.00" departed="0" arrived="0" entered="0" left="0" laneChangedFrom="0" laneChangedTo="0"/>
        </edge>
        <edge id="-110295208">
            <lane id="-110295208_0" sampledSeconds="0.00" departed="0" arrived="0" entered="0" left="0" laneChangedFrom="0" laneChangedTo="0"/>
        </edge>
        <edge id="-110295209#2">
            <lane id="-110295209#2_0" sampledSeconds="0.00" departed="0" arrived="0" entered="0" left="0" laneChangedFrom="0" laneChangedTo="0"/>
        </edge>
        <edge id="-110295218">
            <lane id="-110295218_0" sampledSeconds="0.00" departed="0" arrived="0" entered="0" left="0" laneChangedFrom="0" laneChangedTo="0"/>
        </edge>
        <edge id="-110295219#0">
            <lane id="-110295219#0_0" sampledSeconds="0.00" departed="0" arrived="0" entered="0" left="0" laneChangedFrom="0" laneChangedTo="0"/>
        </edge>
        <edge id="-110295219#1">
            <lane id="-110295219#1_0" sampledSeconds="0.00" departed="0" arrived="0" entered="0" left="0" laneChangedFrom="0" laneChangedTo="0"/>
        </edge>
        <edge id="-110295219#3">
            <lane id="-110295219#3_0" sampledSeconds="0.00" departed="0" arrived="0" entered="0" left="0" laneChangedFrom="0" laneChangedTo="0"/>
        </edge>
        <edge id="-110295220">
            <lane id="-110295220_0" sampledSeconds="0.00" departed="0" arrived="0" entered="0" left="0" laneChangedFrom="0" laneChangedTo="0"/>
        </edge>
        <edge id="-110295223">
            <lane id="-110295223_0" sampledSeconds="0.00" departed="0" arrived="0" entered="0" left="0" laneChangedFrom="0" laneChangedTo="0"/>
        </edge>
        <edge id="-110295228">
            <lane id="-110295228_0" sampledSeconds="0.00" departed="0" arrived="0" entered="0" left="0" laneChangedFrom="0" laneChangedTo="0"/>
        </edge>
        <edge id="-110295232#0">
            <lane id="-110295232#0_0" sampledSeconds="0.00" departed="0" arrived="0" entered="0" left="0" laneChangedFrom="0" laneChangedTo="0"/>
        </edge>
        <edge id="-110295232#1">
            <lane id="-110295232#1_0" sampledSeconds="0.00" departed="0" arrived="0" entered="0" left="0" laneChangedFrom="0" laneChangedTo="0"/>
        </edge>
        <edge id="-110295232#2">
            <lane id="-110295232#2_0" sampledSeconds="0.00" departed="0" arrived="0" entered="0" left="0" laneChangedFrom="0" laneChangedTo="0"/>
        </edge>
        <edge id="-110295232#3">
            <lane id="-110295232#3_0" sampledSeconds="0.00" departed="0" arrived="0" entered="0" left="0" laneChangedFrom="0" laneChangedTo="0"/>
        </edge>
        <edge id="-110295232#4">
            <lane id="-110295232#4_0" sampledSeconds="0.00" departed="0" arrived="0" entered="0" left="0" laneChangedFrom="0" laneChangedTo="0"/>
        </edge>
        <edge id="-110295232#5">
            <lane id="-110295232#5_0" sampledSeconds="0.00" departed="0" arrived="0" entered="0" left="0" laneChangedFrom="0" laneChangedTo="0"/>
        </edge>
        <edge id="-110295232#6">
            <lane id="-110295232#6_0" sampledSeconds="0.00" departed="0" arrived="0" entered="0" left="0" laneChangedFrom="0" laneChangedTo="0"/>
        </edge>
        <edge id="-110295233">
            <lane id="-110295233_0" sampledSeconds="0.00" departed="0" arrived="0" entered="0" left="0" laneChangedFrom="0" laneChangedTo="0"/>
        </edge>
        <edge id="-110295234#0">
            <lane id="-110295234#0_0" sampledSeconds="0.00" departed="0" arrived="0" entered="0" left="0" laneChangedFrom="0" laneChangedTo="0"/>
        </edge>
        <edge id="-110295234#1">
            <lane id="-110295234#1_0" sampledSeconds="0.00" departed="0" arrived="0" entered="0" left="0" laneChangedFrom="0" laneChangedTo="0"/>
        </edge>
        <edge id="-110295235#0">
            <lane id="-110295235#0_0" sampledSeconds="0.00" departed="0" arrived="0" entered="0" left="0" laneChangedFrom="0" laneChangedTo="0"/>
        </edge>
        <edge id="-110295235#1">
            <lane id="-110295235#1_0" sampledSeconds="0.00" departed="0" arrived="0" entered="0" left="0" laneChangedFrom="0" laneChangedTo="0"/>
        </edge>
        <edge id="-110295237">
            <lane id="-110295237_0" sampledSeconds="0.00" departed="0" arrived="0" entered="0" left="0" laneChangedFrom="0" laneChangedTo="0"/>
        </edge>
        <edge id="-110295239">
            <lane id="-110295239_0" sampledSeconds="0.00" departed="0" arrived="0" entered="0" left="0" laneChangedFrom="0" laneChangedTo="0"/>
        </edge>
        <edge id="-110295241">
            <lane id="-110295241_0" sampledSeconds="0.00" departed="0" arrived="0" entered="0" left="0" laneChangedFrom="0" laneChangedTo="0"/>
        </edge>
        <edge id="-110295242">
            <lane id="-110295242_0" sampledSeconds="0.00" departed="0" arrived="0" entered="0" left="0" laneChangedFrom="0" laneChangedTo="0"/>
        </edge>
        <edge id="-110295243">
            <lane id="-110295243_0" sampledSeconds="0.00" departed="0" arrived="0" entered="0" left="0" laneChangedFrom="0" laneChangedTo="0"/>
        </edge>
        <edge id="-110295244#0">
            <lane id="-110295244#0_0" sampledSeconds="0.00" departed="0" arrived="0" entered="0" left="0" laneChangedFrom="0" laneChangedTo="0"/>
        </edge>
        <edge id="-110295244#1">
            <lane id="-110295244#1_0" sampledSeconds="0.00" departed="0" arrived="0" entered="0" left="0" laneChangedFrom="0" laneChangedTo="0"/>
        </edge>
        <edge id="-110295244#2">
            <lane id="-110295244#2_0" sampledSeconds="0.00" departed="0" arrived="0" entered="0" left="0" laneChangedFrom="0" laneChangedTo="0"/>
        </edge>
        <edge id="-110295244#3">
            <lane id="-110295244#3_0" sampledSeconds="0.00" departed="0" arrived="0" entered="0" left="0" laneChangedFrom="0" laneChangedTo="0"/>
        </edge>
        <edge id="-110295244#4">
            <lane id="-110295244#4_0" sampledSeconds="0.00" departed="0" arrived="0" entered="0" left="0" laneChangedFrom="0" laneChangedTo="0"/>
        </edge>
        <edge id="-110295244#5">
            <lane id="-110295244#5_0" sampledSeconds="0.00" departed="0" arrived="0" entered="0" left="0" laneChangedFrom="0" laneChangedTo="0"/>
        </edge>
        <edge id="-110295244#6">
            <lane id="-110295244#6_0" sampledSeconds="0.00" departed="0" arrived="0" entered="0" left="0" laneChangedFrom="0" laneChangedTo="0"/>
        </edge>
        <edge id="-110295244#7">
            <lane id="-110295244#7_0" sampledSeconds="0.00" departed="0" arrived="0" entered="0" left="0" laneChangedFrom="0" laneChangedTo="0"/>
        </edge>
        <edge id="-110295248">
            <lane id="-110295248_0" sampledSeconds="0.00" departed="0" arrived="0" entered="0" left="0" laneChangedFrom="0" laneChangedTo="0"/>
        </edge>
        <edge id="-110295249">
            <lane id="-110295249_0" sampledSeconds="0.00" departed="0" arrived="0" entered="0" left="0" laneChangedFrom="0" laneChangedTo="0"/>
        </edge>
        <edge id="-110295250">
            <lane id="-110295250_0" sampledSeconds="0.00" departed="0" arrived="0" entered="0" left="0" laneChangedFrom="0" laneChangedTo="0"/>
        </edge>
        <edge id="-110295251#10">
            <lane id="-110295251#10_0" sampledSeconds="104.28" traveltime="5.50" overlapTraveltime="6.19" density="0.17" laneDensity="0.17" occupancy="0.08" waitingTime="0.00" speed="9.89" departed="1" arrived="2" entered="16" left="15" laneChangedFrom="0" laneChangedTo="0"/>
        </edge>
        <edge id="-110295251#2">
            <lane id="-110295251#2_0" sampledSeconds="72.78" traveltime="17.44" overlapTraveltime="18.55" density="0.11" laneDensity="0.11" occupancy="0.05" waitingTime="36.00" speed="3.58" departed="1" arrived="1" entered="3" left="3" laneChangedFrom="0" laneChangedTo="0"/>
        </edge>
        <edge id="-110295251#3">
            <lane id="-110295251#3_0" sampledSeconds="75.99" traveltime="6.95" overlapTraveltime="7.65" density="0.10" laneDensity="0.10" occupancy="0.04" waitingTime="0.00" speed="10.04" departed="1" arrived="2" entered="9" left="8" laneChangedFrom="0" laneChangedTo="0"/>
        </edge>
        <edge id="-110295251#4">
            <lane id="-110295251#4_0" sampledSeconds="65.99" traveltime="12.50" overlapTraveltime="13.20" density="0.04" laneDensity="0.04" occupancy="0.02" waitingTime="0.00" speed="11.28" departed="0" arrived="0" entered="5" left="5" laneChangedFrom="0" laneChangedTo="0"/>
        </edge>
        <edge id="-110295251#5">
            <lane id="-110295251#5_0" sampledSeconds="84.12" traveltime="13.52" overlapTraveltime="14.20" density="0.05" laneDensity="0.05" occupancy="0.02" waitingTime="0.00" speed="10.92" departed="2" arrived="1" entered="4" left="5" laneChangedFrom="0" laneChangedTo="0"/>
        </edge>
        <edge id="-110295251#6">
            <lane id="-110295251#6_0" sampledSeconds="439.21" traveltime="23.59" overlapTraveltime="24.45" density="0.14" laneDensity="0.14" occupancy="0.07" waitingTime="0.00" speed="12.28" departed="2" arrived="0" entered="16" left="18" laneChangedFrom="0" laneChangedTo="0"/>
        </edge>
        <edge id="-110295251#7">
            <lane id="-110295251#7_0" sampledSeconds="126.61" traveltime="15.03" overlapTraveltime="16.05" density="0.07" laneDensity="0.07" occupancy="0.03" waitingTime="0.00" speed="11.17" departed="3" arrived="1" entered="5" left="7" laneChangedFrom="0" laneChangedTo="0"/>
        </edge>
        <edge id="-110295251#8">
            <lane id="-110295251#8_0" sampledSeconds="276.36" traveltime="18.78" overlapTraveltime="19.77" density="0.11" laneDensity="0.11" occupancy="0.05" waitingTime="0.00" speed="11.82" departed="1" arrived="0" entered="13" left="14" laneChangedFrom="0" laneChangedTo="0"/>
        </edge>
        <edge id="-110295252">
            <lane id="-110295252_0" sampledSeconds="0.00" departed="0" arrived="0" entered="0" left="0" laneChangedFrom="0" laneChangedTo="0"/>
        </edge>
        <edge id="-110295253#2">
            <lane id="-110295253#2_0" sampledSeconds="0.00" departed="0" arrived="0" entered="0" left="0" laneChangedFrom="0" laneChangedTo="0"/>
        </edge>
        <edge id="-110295253#3">
            <lane id="-110295253#3_0" sampledSeconds="0.00" departed="0" arrived="0" entered="0" left="0" laneChangedFrom="0" laneChangedTo="0"/>
        </edge>
        <edge id="-110295253#4">
            <lane id="-110295253#4_0" sampledSeconds="0.00" departed="0" arrived="0" entered="0" left="0" laneChangedFrom="0" laneChangedTo="0"/>
        </edge>
        <edge id="-110295254#0">
            <lane id="-110295254#0_0" sampledSeconds="0.00" departed="0" arrived="0" entered="0" left="0" laneChangedFrom="0" laneChangedTo="0"/>
        </edge>
        <edge id="-110295254#1">
            <lane id="-110295254#1_0" sampledSeconds="0.00" departed="0" arrived="0" entered="0" left="0" laneChangedFrom="0" laneChangedTo="0"/>
        </edge>
        <edge id="-110295255">
            <lane id="-110295255_0" sampledSeconds="0.00" departed="0" arrived="0" entered="0" left="0" laneChangedFrom="0" laneChangedTo="0"/>
        </edge>
        <edge id="-110295256">
            <lane id="-110295256_0" sampledSeconds="0.00" departed="0" arrived="0" entered="0" left="0" laneChangedFrom="0" laneChangedTo="0"/>
        </edge>
        <edge id="-110295261">
            <lane id="-110295261_0" sampledSeconds="0.00" departed="0" arrived="0" entered="0" left="0" laneChangedFrom="0" laneChangedTo="0"/>
        </edge>
        <edge id="-110295262#0">
            <lane id="-110295262#0_0" sampledSeconds="0.00" departed="0" arrived="0" entered="0" left="0" laneChangedFrom="0" laneChangedTo="0"/>
        </edge>
        <edge id="-110295262#1">
            <lane id="-110295262#1_0" sampledSeconds="0.00" departed="0" arrived="0" entered="0" left="0" laneChangedFrom="0" laneChangedTo="0"/>
        </edge>
        <edge id="-140014359#0">
            <lane id="-140014359#0_0" sampledSeconds="13.91" traveltime="3.85" overlapTraveltime="5.09" density="0.09" laneDensity="0.09" occupancy="0.03" waitingTime="0.00" speed="3.81" departed="1" arrived="0" entered="2" left="3" laneChangedFrom="0" laneChangedTo="0"/>
        </edge>
        <edge id="-140014359#1">
            <lane id="-140014359#1_0" sampledSeconds="12.86" traveltime="6.57" overlapTraveltime="7.90" density="0.05" laneDensity="0.05" occupancy="0.02" waitingTime="0.00" speed="3.46" departed="2" arrived="0" entered="0" left="2" laneChangedFrom="0" laneChangedTo="0"/>
        </edge>
        <edge id="-140014359#2">
            <lane id="-140014359#2_0" sampledSeconds="187.14" traveltime="29.98" overlapTraveltime="31.42" density="0.17" laneDensity="0.17" occupancy="0.08" waitingTime="0.00" speed="3.48" departed="0" arrived="1" entered="6" left="5" laneChangedFrom="0" laneChangedTo="0"/>
        </edge>
        <edge id="-140014361#0">
            <lane id="-140014361#0_0" sampledSeconds="51.80" traveltime="12.62" overlapTraveltime="13.18" density="0.04" laneDensity="0.04" occupancy="0.02" waitingTime="0.00" speed="9.05" departed="0" arrived="4" entered="4" left="0" laneChangedFrom="0" laneChangedTo="0"/>
        </edge>
        <edge id="-140014361#1">
            <lane id="-140014361#1_0" sampledSeconds="76.49" traveltime="5.94" overlapTraveltime="7.09" density="0.16" laneDensity="0.16" occupancy="0.07" waitingTime="0.00" speed="6.79" departed="2" arrived="0" entered="9" left="11" laneChangedFrom="0" laneChangedTo="0"/>
        </edge>
        <edge id="-140014362">
            <lane id="-140014362_0" sampledSeconds="31.07" traveltime="10.05" overlapTraveltime="10.58" density="0.03" laneDensity="0.03" occupancy="0.01" waitingTime="0.00" speed="9.33" departed="0" arrived="3" entered="3" left="0" laneChangedFrom="0" laneChangedTo="0"/>
        </edge>
        <edge id="-140014363#0">
            <lane id="-140014363#0_0" sampledSeconds="74.64" traveltime="24.66" overlapTraveltime="25.91" density="0.07" laneDensity="0.07" occupancy="0.03" waitingTime="0.00" speed="3.96" departed="0" arrived="3" entered="3" left="0" laneChangedFrom="0" laneChangedTo="0"/>
        </edge>
        <edge id="-140014363#1">
            <lane id="-140014363#1_0" sampledSeconds="75.60" traveltime="23.84" overlapTraveltime="25.20" density="0.07" laneDensity="0.07" occupancy="0.03" waitingTime="0.00" speed="4.02" departed="0" arrived="0" entered="3" left="3" laneChangedFrom="0" laneChangedTo="0"/>
        </edge>
        <edge id="-140014363#2">
            <lane id="-140014363#2_0" sampledSeconds="113.52" traveltime="36.31" overlapTraveltime="37.84" density="0.08" laneDensity="0.08" occupancy="0.04" waitingTime="0.00" speed="3.72" departed="0" arrived="0" entered="3" left="3" laneChangedFrom="0" laneChangedTo="0"/>
        </edge>
        <edge id="-140014363#3">
            <lane id="-140014363#3_0" sampledSeconds="165.15" traveltime="9.14" overlapTraveltime="10.56" density="0.46" laneDensity="0.46" occupancy="0.20" waitingTime="0.00" speed="3.63" departed="1" arrived="4" entered="15" left="12" laneChangedFrom="0" laneChangedTo="0"/>
        </edge>
        <edge id="-140014364#0">
            <lane id="-140014364#0_0" sampledSeconds="43.55" traveltime="43.07" overlapTraveltime="43.55" density="0.01" laneDensity="0.01" occupancy="0.00" waitingTime="0.00" speed="10.43" departed="0" arrived="1" entered="1" left="0" laneChangedFrom="0" laneChangedTo="0"/>
        </edge>
        <edge id="-140014364#1">
            <lane id="-140014364#1_0" sampledSeconds="37.34" traveltime="11.59" overlapTraveltime="12.45" density="0.03" laneDensity="0.03" occupancy="0.01" waitingTime="0.00" speed="9.95" departed="0" arrived="1" entered="3" left="2" laneChangedFrom="0" laneChangedTo="0"/>
        </edge>
        <edge id="-140014364#2">
            <lane id="-140014364#2_0" sampledSeconds="102.71" traveltime="9.50" overlapTraveltime="10.33" density="0.11" laneDensity="0.11" occupancy="0.05" waitingTime="0.00" speed="8.78" departed="1" arrived="1" entered="9" left="9" laneChangedFrom="0" laneChangedTo="0"/>
        </edge>
        <edge id="-140014365">
            <lane id="-140014365_0" sampledSeconds="48.03" traveltime="23.85" overlapTraveltime="24.60" density="0.02" laneDensity="0.02" occupancy="0.01" waitingTime="0.00" speed="8.63" departed="2" arrived="0" entered="0" left="2" laneChangedFrom="0" laneChangedTo="0"/>
        </edge>
        <edge id="-140014366#0">
            <lane id="-140014366#0_0" sampledSeconds="23.38" traveltime="7.36" overlapTraveltime="7.91" density="0.03" laneDensity="0.03" occupancy="0.02" waitingTime="0.00" speed="8.95" departed="0" arrived="3" entered="3" left="0" laneChangedFrom="0" laneChangedTo="0"/>
        </edge>
        <edge id="-140014366#1">
            <lane id="-140014366#1_0" sampledSeconds="125.25" traveltime="10.54" overlapTraveltime="11.49" density="0.13" laneDensity="0.13" occupancy="0.06" waitingTime="0.00" speed="8.35" departed="1" arrived="1" entered="10" left="10" laneChangedFrom="0" laneChangedTo="0"/>
        </edge>
        <edge id="-140014368#0">
            <lane id="-140014368#0_0" sampledSeconds="279.79" traveltime="17.52" overlapTraveltime="19.00" density="0.83" laneDensity="0.83" occupancy="0.39" waitingTime="126.00" speed="1.91" departed="1" arrived="1" entered="14" left="14" laneChangedFrom="0" laneChangedTo="0"/>
        </edge>
        <edge id="-140014368#1">
            <lane id="-140014368#1_0" sampledSeconds="157.39" traveltime="25.29" overlapTraveltime="26.72" density="0.17" laneDensity="0.17" occupancy="0.08" waitingTime="0.00" speed="3.47" departed="2" arrived="0" entered="4" left="6" laneChangedFrom="0" laneChangedTo="0"/>
        </edge>
        <edge id="-140014369">
            <lane id="-140014369_0" sampledSeconds="64.67" traveltime="10.32" overlapTraveltime="10.89" density="0.07" laneDensity="0.07" occupancy="0.03" waitingTime="0.00" speed="8.71" departed="0" arrived="4" entered="6" left="2" laneChangedFrom="0" laneChangedTo="0"/>
        </edge>
        <edge id="-140014376#0">
            <lane id="-140014376#0_0" sampledSeconds="6.71" traveltime="6.50" overlapTraveltime="6.97" density="0.01" laneDensity="0.01" occupancy="0.00" waitingTime="0.00" speed="9.97" departed="0" arrived="1" entered="1" left="0" laneChangedFrom="0" laneChangedTo="0"/>
        </edge>
        <edge id="-140014376#1">
            <lane id="-140014376#1_0" sampledSeconds="0.00" departed="0" arrived="0" entered="0" left="0" laneChangedFrom="0" laneChangedTo="0"/>
        </edge>
        <edge id="-140014376#2">
            <lane id="-140014376#2_0" sampledSeconds="41.40" traveltime="9.22" overlapTraveltime="10.49" density="0.04" laneDensity="0.04" occupancy="0.02" waitingTime="0.00" speed="9.41" departed="1" arrived="1" entered="3" left="3" laneChangedFrom="0" laneChangedTo="0"/>
        </edge>
        <edge id="-140014376#3">
            <lane id="-140014376#3_0" sampledSeconds="15.89" traveltime="3.44" overlapTraveltime="4.12" density="0.05" laneDensity="0.05" occupancy="0.02" waitingTime="0.00" speed="8.72" departed="1" arrived="0" entered="3" left="4" laneChangedFrom="0" laneChangedTo="0"/>
        </edge>
        <edge id="-140014376#4">
            <lane id="-140014376#4_0" sampledSeconds="234.03" traveltime="15.97" overlapTraveltime="16.74" density="0.14" laneDensity="0.14" occupancy="0.06" waitingTime="0.00" speed="9.87" departed="0" arrived="2" entered="14" left="12" laneChangedFrom="0" laneChangedTo="0"/>
        </edge>
        <edge id="-140014378#0">
            <lane id="-140014378#0_0" sampledSeconds="230.82" traveltime="57.70" overlapTraveltime="58.94" density="0.10" laneDensity="0.10" occupancy="0.05" waitingTime="0.00" speed="3.57" departed="2" arrived="2" entered="2" left="2" laneChangedFrom="0" laneChangedTo="0"/>
        </edge>
        <edge id="-140014378#1">
            <lane id="-140014378#1_0" sampledSeconds="86.88" traveltime="16.47" overlapTraveltime="17.81" density="0.13" laneDensity="0.13" occupancy="0.06" waitingTime="0.00" speed="3.81" departed="1" arrived="1" entered="4" left="4" laneChangedFrom="0" laneChangedTo="0"/>
        </edge>
        <edge id="-140014379#0">
            <lane id="-140014379#0_0" sampledSeconds="147.40" traveltime="20.21" overlapTraveltime="21.44" density="0.38" laneDensity="0.38" occupancy="0.18" waitingTime="68.00" speed="1.93" departed="1" arrived="0" entered="6" left="7" laneChangedFrom="0" laneChangedTo="0"/>
        </edge>
        <edge id="-140014379#1">
            <lane id="-140014379#1_0" sampledSeconds="35.28" traveltime="17.62" overlapTraveltime="18.96" density="0.05" laneDensity="0.05" occupancy="0.02" waitingTime="0.00" speed="3.87" departed="2" arrived="0" entered="0" left="2" laneChangedFrom="0" laneChangedTo="0"/>
        </edge>
        <edge id="-140014379#2">
            <lane id="-140014379#2_0" sampledSeconds="179.32" traveltime="24.71" overlapTraveltime="26.17" density="0.16" laneDensity="0.16" occupancy="0.08" waitingTime="0.00" speed="4.12" departed="1" arrived="3" entered="6" left="4" laneChangedFrom="0" laneChangedTo="0"/>
        </edge>
        <edge id="-140014380#0">