<?xml version="1.0" encoding="UTF-8"?>
<!-- generated on 2020-10-10 15:48:27.926000 by randomTrips.py v1_6_0+0003-190709904e
  options: -e 46800 -n C:\Users\Jon\OneDrive\Documents\Project1SUMO\braddock.net.xml <doubleminus>route-file routes.routes.xml <doubleminus>period 18
-->
<routes xmlns:xsi="http://www.w3.org/2001/XMLSchema-instance" xsi:noNamespaceSchemaLocation="http://sumo.dlr.de/xsd/routes_file.xsd">
    <trip id="0" depart="0.00" from="-590855714#1" to="590855737#1"/>
    <trip id="1" depart="18.00" from="8829257#2" to="8819757#3"/>
    <trip id="2" depart="36.00" from="-8831452#3" to="-8831430"/>
    <trip id="3" depart="54.00" from="8844861#2" to="37349749#1"/>
    <trip id="4" depart="72.00" from="140014376#3" to="140014363#2"/>
    <trip id="5" depart="90.00" from="-8829294#6" to="8844861#12"/>
    <trip id="6" depart="108.00" from="-8807620" to="116948789#4"/>
    <trip id="7" depart="126.00" from="8813380#0" to="-8832605#1"/>
    <trip id="8" depart="144.00" from="590855741#3" to="-8837174"/>
    <trip id="9" depart="162.00" from="-590855714#2" to="-8826695"/>
    <trip id="10" depart="180.00" from="-8831452#5" to="8828668#9"/>
    <trip id="11" depart="198.00" from="-8832548#1" to="8832625#3"/>
    <trip id="12" depart="216.00" from="-8832625#1" to="-8831452#1"/>
    <trip id="13" depart="234.00" from="8844861#5" to="-8826054#2"/>
    <trip id="14" depart="252.00" from="144267617#4" to="-590855713"/>
    <trip id="15" depart="270.00" from="590855741#0" to="8809446#1"/>
    <trip id="16" depart="288.00" from="140014364#1" to="-8829294#5"/>
    <trip id="17" depart="306.00" from="171719504#1" to="-8844861#1"/>
    <trip id="18" depart="324.00" from="171719514#0" to="-140014361#0"/>
    <trip id="19" depart="342.00" from="140014378#1" to="8842243#0"/>
    <trip id="20" depart="360.00" from="-8845421#0" to="8842243#1"/>
    <trip id="21" depart="378.00" from="171719498#0" to="-140014363#3"/>
    <trip id="22" depart="396.00" from="8815766#1" to="-8834653#1"/>
    <trip id="23" depart="414.00" from="8846015#0" to="-8829294#0"/>
    <trip id="24" depart="432.00" from="233086787#3" to="-140014364#2"/>
    <trip id="25" depart="450.00" from="-8844712#0" to="-8819757#3"/>
    <trip id="26" depart="468.00" from="110295251#6" to="-37430503#2"/>
    <trip id="27" depart="486.00" from="140014376#4" to="8828668#9"/>
    <trip id="28" depart="504.00" from="-8829294#6" to="171719506#2.93"/>
    <trip id="29" depart="522.00" from="-8846015#1" to="8829294#1"/>
    <trip id="30" depart="540.00" from="-8832548#4" to="-140014364#0"/>
    <trip id="31" depart="558.00" from="-8813380#2" to="8829294#9"/>
    <trip id="32" depart="576.00" from="-191661301#4" to="-8828746#0"/>
    <trip id="33" depart="594.00" from="144267617#0" to="117274086"/>
    <trip id="34" depart="612.00" from="-8822095#1" to="8832548#2"/>
    <trip id="35" depart="630.00" from="144267617#2" to="-8844861#3"/>
    <trip id="36" depart="648.00" from="-232089990#2" to="-140014366#0"/>
    <trip id="37" depart="666.00" from="-8829294#4" to="8829294#4"/>
    <trip id="38" depart="684.00" from="-140014379#2" to="-8829494#0"/>
    <trip id="39" depart="702.00" from="-590855713" to="110295251#3"/>
    <trip id="40" depart="720.00" from="-233086787#3" to="144267617#4.122"/>
    <trip id="41" depart="738.00" from="110295251#8" to="-140014376#0"/>
    <trip id="42" depart="756.00" from="-8826695" to="-8837174"/>
    <trip id="43" depart="774.00" from="-8844861#6" to="-8843496#2"/>
    <trip id="44" depart="792.00" from="-140014364#2" to="-8809446#1"/>
    <trip id="45" depart="810.00" from="8818653#1" to="590855738#0"/>
    <trip id="46" depart="828.00" from="-232089990#3" to="-8829723#1"/>
    <trip id="47" depart="846.00" from="-110295251#2" to="8832605#1"/>
    <trip id="48" depart="864.00" from="8838708#2" to="-8845638#3"/>
    <trip id="49" depart="882.00" from="-110295251#7" to="-8834798#8"/>
    <trip id="50" depart="900.00" from="140014369" to="-8828366"/>
    <trip id="51" depart="918.00" from="8845748#0" to="-37349748#0"/>
    <trip id="52" depart="936.00" from="-140014379#1" to="8815766#0"/>
    <trip id="53" depart="954.00" from="-8845421#0" to="8845153#1"/>
    <trip id="54" depart="972.00" from="8822095#3" to="232089990#2"/>
    <trip id="55" depart="990.00" from="140014359#2" to="-8832548#3"/>
    <trip id="56" depart="1008.00" from="191661301#1" to="8844861#6"/>
    <trip id="57" depart="1026.00" from="140014361#1" to="-140014369"/>
    <trip id="58" depart="1044.00" from="8845638#2" to="8843496#1"/>
    <trip id="59" depart="1062.00" from="171719519#3" to="-8829294#1"/>
    <trip id="60" depart="1080.00" from="8845153#1" to="117274088"/>
    <trip id="61" depart="1098.00" from="-8845153#0" to="-8845638#0"/>
    <trip id="62" depart="1116.00" from="8813380#4" to="-8822095#3"/>
    <trip id="63" depart="1134.00" from="144267617#1" to="8846015#0"/>
    <trip id="64" depart="1152.00" from="131360792#1" to="232089990#5"/>
    <trip id="65" depart="1170.00" from="8829294#8" to="-8831452#1"/>
    <trip id="66" depart="1188.00" from="110295251#5" to="37430503#2"/>
    <trip id="67" depart="1206.00" from="-8839621#2" to="8829294#9"/>
    <trip id="68" depart="1224.00" from="-8828502" to="-171731099#2"/>
    <trip id="69" depart="1242.00" from="-8839621#5" to="590855741#0"/>
    <trip id="70" depart="1260.00" from="116948789#1" to="8845638#5"/>
    <trip id="71" depart="1278.00" from="-140014376#2" to="-233086787#0"/>
    <trip id="72" depart="1296.00" from="140014366#1" to="590855738#0"/>
    <trip id="73" depart="1314.00" from="8846015#1" to="-37349748#0"/>
    <trip id="74" depart="1332.00" from="-37349748#1" to="-8840467#2"/>
    <trip id="75" depart="1350.00" from="8843496#1" to="-110295251#10"/>
    <trip id="76" depart="1368.00" from="8844861#3" to="8831430"/>
    <trip id="77" depart="1386.00" from="590855714#1" to="-8832548#3"/>
    <trip id="78" depart="1404.00" from="-8829294#5" to="-8822095#5"/>
    <trip id="79" depart="1422.00" from="590855759#7" to="-8819763"/>
    <trip id="80" depart="1440.00" from="-8822095#3" to="8829294#3"/>
    <trip id="81" depart="1458.00" from="8829294#2" to="-8828366"/>
    <trip id="82" depart="1476.00" from="-140014359#1" to="-8813380#1"/>
    <trip id="83" depart="1494.00" from="8819757#2" to="-8819757#2"/>
    <trip id="84" depart="1512.00" from="-8843698" to="8844861#9"/>
    <trip id="85" depart="1530.00" from="-8839621#3" to="171719521#2"/>
    <trip id="86" depart="1548.00" from="8829257#2" to="8837229#1"/>
    <trip id="87" depart="1566.00" from="8824717" to="144267617#4"/>
    <trip id="88" depart="1584.00" from="191661301#1" to="-140014364#1"/>
    <trip id="89" depart="1602.00" from="-110295251#8" to="-8831430"/>
    <trip id="90" depart="1620.00" from="-8813380#4" to="233086787#3"/>
    <trip id="91" depart="1638.00" from="-8839621#4" to="8844861#5"/>
    <trip id="92" depart="1656.00" from="-191661301#3" to="116948789#4"/>
    <trip id="93" depart="1674.00" from="131360792#1" to="8819757#3"/>
    <trip id="94" depart="1692.00" from="8819035#0" to="8832548#3"/>
    <trip id="95" depart="1710.00" from="8822095#1" to="-8832548#3"/>
    <trip id="96" depart="1728.00" from="-8838708#2" to="590855759#7"/>
    <trip id="97" depart="1746.00" from="-8834653#1" to="8813727#1"/>
    <trip id="98" depart="1764.00" from="8832625#0" to="171719514#1"/>
    <trip id="99" depart="1782.00" from="590855759#7" to="-8819757#0"/>
    <trip id="100" depart="1800.00" from="-8818653#0" to="-8820592"/>
    <trip id="101" depart="1818.00" from="-8846015#2" to="-590855714#1"/>
    <trip id="102" depart="1836.00" from="-8834798#0" to="8837229#0"/>
    <trip id="103" depart="1854.00" from="8832548#2" to="8828668#3"/>
    <trip id="104" depart="1872.00" from="8829294#4" to="-171731099#2"/>
    <trip id="105" depart="1890.00" from="-37349749#1" to="117289053#0"/>
    <trip id="106" depart="1908.00" from="590855741#2" to="8842231"/>
    <trip id="107" depart="1926.00" from="8820674#2" to="-8831452#0"/>
    <trip id="108" depart="1944.00" from="8827389#1" to="8846015#1"/>
    <trip id="109" depart="1962.00" from="140014361#1" to="590855741#1"/>
    <trip id="110" depart="1980.00" from="8843496#0" to="171731099#1"/>
    <trip id="111" depart="1998.00" from="-8820592" to="-8813380#6"/>
    <trip id="112" depart="2016.00" from="590855737#2" to="8844857"/>
    <trip id="113" depart="2034.00" from="8829294#8" to="590855742#2.61"/>
    <trip id="114" depart="2052.00" from="-8834798#4" to="140014363#3"/>
    <trip id="115" depart="2070.00" from="8829723#2" to="8818653#1"/>
    <trip id="116" depart="2088.00" from="8846015#2" to="8829257#1"/>
    <trip id="117" depart="2106.00" from="8828668#2-AddedOnRampEdge" to="131360790#0"/>
    <trip id="118" depart="2124.00" from="110295251#6" to="590855742#3.305"/>
    <trip id="119" depart="2142.00" from="117289064#0" to="8844861#0"/>
    <trip id="120" depart="2160.00" from="590855759#0" to="171719506#1.207"/>
    <trip id="121" depart="2178.00" from="-8831664" to="8828668#4"/>
    <trip id="122" depart="2196.00" from="8831430" to="8820592"/>
    <trip id="123" depart="2214.00" from="8837229#1" to="-140014378#0"/>
    <trip id="124" depart="2232.00" from="-8819757#3" to="8845748#1"/>
    <trip id="125" depart="2250.00" from="171719504#1" to="-8820592"/>
    <trip id="126" depart="2268.00" from="-37430504" to="590855759#7"/>
    <trip id="127" depart="2286.00" from="8829494#0" to="8831664"/>
    <trip id="128" depart="2304.00" from="110295251#7" to="8829257#3"/>
    <trip id="129" depart="2322.00" from="37349749#0" to="37430503#3"/>
    <trip id="130" depart="2340.00" from="144267617#0" to="-8829294#8"/>
    <trip id="131" depart="2358.00" from="8813380#2" to="-8839621#0"/>
    <trip id="132" depart="2376.00" from="590855741#1" to="171719514#0"/>
    <trip id="133" depart="2394.00" from="8819757#2" to="-8844861#1"/>
    <trip id="134" depart="2412.00" from="-8819757#1" to="-8834798#1"/>
    <trip id="135" depart="2430.00" from="140014361#1" to="-8842486"/>
    <trip id="136" depart="2448.00" from="140014363#2" to="-110295251#3"/>
    <trip id="137" depart="2466.00" from="8838708#2" to="-37430503#1"/>
    <trip id="138" depart="2484.00" from="8844861#8" to="-171731099#3"/>
    <trip id="139" depart="2502.00" from="-8822095#1" to="140014376#4"/>
    <trip id="140" depart="2520.00" from="8822095#0" to="-8818653#0"/>
    <trip id="141" depart="2538.00" from="-8807620" to="110295251#4"/>
    <trip id="142" depart="2556.00" from="-140014368#1" to="-8844861#10"/>
    <trip id="143" depart="2574.00" from="110295251#3" to="8818653#1"/>
    <trip id="144" depart="2592.00" from="-232089990#1" to="590855714#1"/>
    <trip id="145" depart="2610.00" from="590855759#7" to="590855738#0"/>
    <trip id="146" depart="2628.00" from="171719514#1" to="-8815766#1"/>
    <trip id="147" depart="2646.00" from="8822095#1" to="-8809446#1"/>
    <trip id="148" depart="2664.00" from="-8813380#4" to="-8844861#4"/>
    <trip id="149" depart="2682.00" from="-8844861#6" to="37349748#0"/>
    <trip id="150" depart="2700.00" from="171719506#2" to="8845638#3"/>
    <trip id="151" depart="2718.00" from="-8839621#1" to="8829294#0"/>
    <trip id="152" depart="2736.00" from="590855759#7" to="8839621#5"/>
    <trip id="153" depart="2754.00" from="590855714#2" to="590855738#2"/>
    <trip id="154" depart="2772.00" from="8813727#0" to="8819035#2"/>
    <trip id="155" depart="2790.00" from="-8845638#4" to="-8844861#9"/>
    <trip id="156" depart="2808.00" from="-8829494#3" to="-37430503#2"/>
    <trip id="157" depart="2826.00" from="117274076#7" to="8838708#2"/>
    <trip id="158" depart="2844.00" from="140014366#1" to="8840467#1"/>
    <trip id="159" depart="2862.00" from="8829294#1" to="117274076#3"/>
    <trip id="160" depart="2880.00" from="8827389#0" to="8819757#4"/>
    <trip id="161" depart="2898.00" from="-8813380#2" to="8832548#1"/>
    <trip id="162" depart="2916.00" from="-37349749#1" to="8844861#10"/>
    <trip id="163" depart="2934.00" from="8819757#1" to="140014368#0"/>
    <trip id="164" depart="2952.00" from="-110295251#6" to="8829294#4"/>
    <trip id="165" depart="2970.00" from="8810550" to="-8834798#8"/>
    <trip id="166" depart="2988.00" from="8820592" to="-140014376#4"/>
    <trip id="167" depart="3006.00" from="-8832625#1" to="8813380#2"/>
    <trip id="168" depart="3024.00" from="171719506#2" to="-8846015#3"/>
    <trip id="169" depart="3042.00" from="590855737#2" to="-233086787#2"/>
    <trip id="170" depart="3060.00" from="-8844861#1" to="8831452#2"/>
    <trip id="171" depart="3078.00" from="171719506#0.133" to="-191661301#1"/>
    <trip id="172" depart="3096.00" from="-8842243#0" to="171719506#3"/>
    <trip id="173" depart="3114.00" from="-8819757#3" to="117289064#6"/>
    <trip id="174" depart="3132.00" from="8829294#8" to="8832548#4"/>
    <trip id="175" depart="3150.00" from="-8845153#1" to="-8818653#0"/>
    <trip id="176" depart="3168.00" from="-8831664" to="590855714#1"/>
    <trip id="177" depart="3186.00" from="-37430503#0" to="-8834798#8"/>
    <trip id="178" depart="3204.00" from="8829494#4" to="8834798#3"/>
    <trip id="179" depart="3222.00" from="131360790#0" to="232089990#4"/>
    <trip id="180" depart="3240.00" from="590855759#5" to="8845627"/>
    <trip id="181" depart="3258.00" from="8826054#1" to="-8834653#0"/>
    <trip id="182" depart="3276.00" from="117289064#0" to="171719498#0.237"/>
    <trip id="183" depart="3294.00" from="-171731099#2" to="-8813380#4"/>
    <trip id="184" depart="3312.00" from="-8844712#0" to="8831452#0"/>
    <trip id="185" depart="3330.00" from="8838708#0" to="-8842486"/>
    <trip id="186" depart="3348.00" from="-8834798#7" to="8844712#0"/>
    <trip id="187" depart="3366.00" from="-8843496#1" to="-8845421#0"/>
    <trip id="188" depart="3384.00" from="8832625#0" to="-140014369"/>
    <trip id="189" depart="3402.00" from="-8818653#2" to="8831452#5"/>
    <trip id="190" depart="3420.00" from="8837229#0" to="191661301#2"/>
    <trip id="191" depart="3438.00" from="-8826695" to="8807620"/>
    <trip id="192" depart="3456.00" from="117274076#6" to="590855737#1"/>
    <trip id="193" depart="3474.00" from="-8831452#0" to="-8832605#1"/>
    <trip id="194" depart="3492.00" from="144267617#1" to="-8839621#2"/>
    <trip id="195" depart="3510.00" from="8837229#2" to="171731099#0"/>
    <trip id="196" depart="3528.00" from="140014366#0" to="8826054#0"/>
    <trip id="197" depart="3546.00" from="117274068" to="590855759#9"/>
    <trip id="198" depart="3564.00" from="-8840467#2" to="-140014363#0"/>
    <trip id="199" depart="3582.00" from="-8845153#0" to="-140014362"/>
    <trip id="200" depart="3600.00" from="8843496#0" to="8844857"/>
    <trip id="201" depart="3618.00" from="117289064#6" to="8829494#0"/>
    <trip id="202" depart="3636.00" from="8845748#0" to="-191661301#4"/>
    <trip id="203" depart="3654.00" from="-140014363#3" to="8822095#0"/>
    <trip id="204" depart="3672.00" from="-8831430" to="8822095#0"/>
    <trip id="205" depart="3690.00" from="8842486" to="8826054#2"/>
    <trip id="206" depart="3708.00" from="-110295251#10" to="8828502"/>
    <trip id="207" depart="3726.00" from="8828746#1" to="8832548#1"/>
    <trip id="208" depart="3744.00" from="-8822095#3" to="-8831452#1"/>
    <trip id="209" depart="3762.00" from="8834798#9" to="-8829257#2"/>
    <trip id="210" depart="3780.00" from="171719506#3.58" to="37430503#3"/>
    <trip id="211" depart="3798.00" from="144267617#3.252" to="8829723#2"/>
    <trip id="212" depart="3816.00" from="-8845638#7" to="-140014366#0"/>
    <trip id="213" depart="3834.00" from="8844861#6" to="110295251#9"/>
    <trip id="214" depart="3852.00" from="590855713" to="-8828366"/>
    <trip id="215" depart="3870.00" from="117289053#0" to="8831430"/>
    <trip id="216" depart="3888.00" from="-37430504" to="-8834798#8"/>
    <trip id="217" depart="3906.00" from="-8829723#2" to="590855741#0.238"/>
    <trip id="218" depart="3924.00" from="-8832625#3" to="8839621#4"/>
    <trip id="219" depart="3942.00" from="-140014378#1" to="232089990#6"/>
    <trip id="220" depart="3960.00" from="590855742#0.124" to="590855737#1"/>
    <trip id="221" depart="3978.00" from="-8845153#1" to="8819035#1"/>
    <trip id="222" depart="3996.00" from="140014366#0" to="590855742#0.124"/>
    <trip id="223" depart="4014.00" from="171719506#2" to="-8845638#2"/>
    <trip id="224" depart="4032.00" from="171731099#0" to="-8831452#4"/>
    <trip id="225" depart="4050.00" from="8834798#6" to="590855737#2"/>
    <trip id="226" depart="4068.00" from="-8826054#2" to="-110295251#5"/>
    <trip id="227" depart="4086.00" from="8829257#1" to="171719514#1"/>
    <trip id="228" depart="4104.00" from="117289053#0" to="-110295251#2"/>
    <trip id="229" depart="4122.00" from="140014364#2" to="-8813660"/>
    <trip id="230" depart="4140.00" from="-8844861#2" to="8829294#5"/>
    <trip id="231" depart="4158.00" from="8822095#0" to="140014379#2"/>
    <trip id="232" depart="4176.00" from="171731099#0" to="233086787#4"/>
    <trip id="233" depart="4194.00" from="590855741#1.52" to="171731099#3"/>
    <trip id="234" depart="4212.00" from="-8832625#2" to="171719504#1"/>
    <trip id="235" depart="4230.00" from="-590855713" to="140014361#1"/>
    <trip id="236" depart="4248.00" from="-8820674#0" to="232089990#1"/>
    <trip id="237" depart="4266.00" from="-232089990#1" to="-8846015#2"/>
    <trip id="238" depart="4284.00" from="-8845638#5" to="8839621#2"/>
    <trip id="239" depart="4302.00" from="8838708#1" to="-8826054#2"/>
    <trip id="240" depart="4320.00" from="-140014366#1" to="-232089990#4"/>
    <trip id="241" depart="4338.00" from="-8846015#2" to="232089990#5"/>
    <trip id="242" depart="4356.00" from="-140014379#1" to="-8845638#1"/>
    <trip id="243" depart="4374.00" from="-8829294#1" to="110295251#3"/>
    <trip id="244" depart="4392.00" from="-8846015#2" to="8831452#6"/>
    <trip id="245" depart="4410.00" from="-8822095#3" to="-8834653#0"/>
    <trip id="246" depart="4428.00" from="-8837229#0" to="-8816458#0"/>
    <trip id="247" depart="4446.00" from="171731099#0" to="590855759#6"/>
    <trip id="248" depart="4464.00" from="8819035#0" to="8842243#0"/>
    <trip id="249" depart="4482.00" from="-8844861#0" to="-140014378#0"/>
    <trip id="250" depart="4500.00" from="117274088" to="117289064#5"/>
    <trip id="251" depart="4518.00" from="-8845638#7" to="8834653#1"/>
    <trip id="252" depart="4536.00" from="140014379#2" to="-140014379#2"/>
    <trip id="253" depart="4554.00" from="191661301#4" to="-140014363#3"/>
    <trip id="254" depart="4572.00" from="8839621#2" to="-8813660"/>
    <trip id="255" depart="4590.00" from="8844861#1" to="8834798#6"/>
    <trip id="256" depart="4608.00" from="-8831452#4" to="171719519#5"/>
    <trip id="257" depart="4626.00" from="8828746#1" to="140014376#2"/>
    <trip id="258" depart="4644.00" from="171719504#1" to="-8844861#1"/>
    <trip id="259" depart="4662.00" from="590855741#3.120" to="-8844861#6"/>
    <trip id="260" depart="4680.00" from="8829294#9" to="-8829294#2"/>
    <trip id="261" depart="4698.00" from="-233086787#1" to="171719521#2"/>
    <trip id="262" depart="4716.00" from="8834653#1" to="-8807618"/>
    <trip id="263" depart="4734.00" from="140014363#0" to="8831452#7"/>
    <trip id="264" depart="4752.00" from="-232089990#2" to="-8819757#3"/>
    <trip id="265" depart="4770.00" from="171719519#3.44" to="-140014363#0"/>
    <trip id="266" depart="4788.00" from="140014364#0" to="8834798#1"/>
    <trip id="267" depart="4806.00" from="-8834798#8" to="-140014366#0"/>
    <trip id="268" depart="4824.00" from="-8842243#1" to="171719519#6"/>
    <trip id="269" depart="4842.00" from="-110295251#5" to="8844346"/>
    <trip id="270" depart="4860.00" from="-8839621#4" to="191661301#2"/>
    <trip id="271" depart="4878.00" from="-8834798#1" to="-8815766#0"/>
    <trip id="272" depart="4896.00" from="-191661301#2" to="8845421#0"/>
    <trip id="273" depart="4914.00" from="-8822095#1" to="232089990#6"/>
    <trip id="274" depart="4932.00" from="590855741#4" to="171719504#1"/>
    <trip id="275" depart="4950.00" from="-8819757#4" to="-8843496#1"/>
    <trip id="276" depart="4968.00" from="8829294#3" to="8838708#1"/>
    <trip id="277" depart="4986.00" from="8838708#2" to="-8832548#4"/>
    <trip id="278" depart="5004.00" from="37349748#0" to="233086787#3"/>
    <trip id="279" depart="5022.00" from="-8831452#5" to="8829294#9"/>
    <trip id="280" depart="5040.00" from="-8845748#1" to="8829049"/>
    <trip id="281" depart="5058.00" from="8829294#2" to="8838708#1"/>
    <trip id="282" depart="5076.00" from="590855742#0" to="-8832548#3"/>
    <trip id="283" depart="5094.00" from="-8826054#0" to="590855737#2"/>
    <trip id="284" depart="5112.00" from="8812480" to="140014378#1"/>
    <trip id="285" depart="5130.00" from="171719519#3" to="8844861#6"/>
    <trip id="286" depart="5148.00" from="-171731099#3" to="590855742#0"/>
    <trip id="287" depart="5166.00" from="8834798#9" to="8813380#0"/>
    <trip id="288" depart="5184.00" from="-110295251#7" to="8845638#2"/>
    <trip id="289" depart="5202.00" from="-140014378#0" to="-8842486"/>
    <trip id="290" depart="5220.00" from="-8815766#1" to="-8844861#5"/>
    <trip id="291" depart="5238.00" from="8829294#8" to="-8844861#5"/>
    <trip id="292" depart="5256.00" from="140014363#3" to="8829294#9"/>
    <trip id="293" depart="5274.00" from="8831452#5" to="-8837229#1"/>
    <trip id="294" depart="5292.00" from="-8845638#6" to="8809446#0"/>
    <trip id="295" depart="5310.00" from="-8826695" to="-8817767#0"/>
    <trip id="296" depart="5328.00" from="-8817767#0" to="116948789#2"/>
    <trip id="297" depart="5346.00" from="-8819757#1" to="-8846015#3"/>
    <trip id="298" depart="5364.00" from="-8838708#2" to="-140014369"/>
    <trip id="299" depart="5382.00" from="-8843496#0" to="590855741#4"/>
    <trip id="300" depart="5400.00" from="-140014359#0" to="8846015#1"/>
    <trip id="301" depart="5418.00" from="117289053#0" to="-8820674#2"/>
    <trip id="302" depart="5436.00" from="37430503#2" to="-8844861#6"/>
    <trip id="303" depart="5454.00" from="140014359#2" to="-233086787#2"/>
    <trip id="304" depart="5472.00" from="-8819035#2" to="8828668#4"/>
    <trip id="305" depart="5490.00" from="171719519#4" to="8844861#12"/>
    <trip id="306" depart="5508.00" from="-37430503#0" to="8829294#4"/>
    <trip id="307" depart="5526.00" from="-140014378#0" to="-8832605#1"/>
    <trip id="308" depart="5544.00" from="-8816458#1" to="140014364#1"/>
    <trip id="309" depart="5562.00" from="8822095#1" to="-8829294#5"/>
    <trip id="310" depart="5580.00" from="590855742#2.61" to="-8819757#2"/>
    <trip id="311" depart="5598.00" from="110295251#5" to="117274079#0"/>
    <trip id="312" depart="5616.00" from="233086787#1" to="-8832605#0"/>
    <trip id="313" depart="5634.00" from="110295251#3" to="8842243#1"/>
    <trip id="314" depart="5652.00" from="116948789#1" to="117274076#3"/>
    <trip id="315" depart="5670.00" from="-37430503#2" to="-8819757#4"/>
    <trip id="316" depart="5688.00" from="8834798#3" to="-8834798#0"/>
    <trip id="317" depart="5706.00" from="233086787#3" to="8815766#0"/>
    <trip id="318" depart="5724.00" from="144267617#4.122" to="590855759#6"/>
    <trip id="319" depart="5742.00" from="8826054#1" to="-8819757#3"/>
    <trip id="320" depart="5760.00" from="8828746#1" to="590855741#3.120"/>
    <trip id="321" depart="5778.00" from="8826054#1" to="590855742#2"/>
    <trip id="322" depart="5796.00" from="144267617#0" to="117274088"/>
    <trip id="323" depart="5814.00" from="8834798#3" to="-8831430"/>
    <trip id="324" depart="5832.00" from="171719504#1" to="-8834798#4"/>
    <trip id="325" depart="5850.00" from="8819757#3" to="590855737#1"/>
    <trip id="326" depart="5868.00" from="-233086787#3" to="8831452#6"/>
    <trip id="327" depart="5886.00" from="-8832625#1" to="8810591"/>
    <trip id="328" depart="5904.00" from="-8842243#1" to="-8815766#0"/>
    <trip id="329" depart="5922.00" from="-8809446#0" to="590855741#0.238"/>
    <trip id="330" depart="5940.00" from="8846015#2" to="590855759#8"/>
    <trip id="331" depart="5958.00" from="-140014368#0" to="-8825637"/>
    <trip id="332" depart="5976.00" from="590855713" to="37349749#1"/>
    <trip id="333" depart="5994.00" from="8840467#2" to="171719514#0"/>
    <trip id="334" depart="6012.00" from="-110295251#7" to="8834798#2"/>
    <trip id="335" depart="6030.00" from="8807618" to="-8845638#0"/>
    <trip id="336" depart="6048.00" from="8834798#8" to="131360790#0"/>
    <trip id="337" depart="6066.00" from="-8834653#1" to="171719514#0"/>
    <trip id="338" depart="6084.00" from="-8822095#0" to="140014361#1"/>
    <trip id="339" depart="6102.00" from="-8839621#5" to="-8844857"/>
    <trip id="340" depart="6120.00" from="-8831452#4" to="8834798#8"/>
    <trip id="341" depart="6138.00" from="-8829294#2" to="-8820674#2"/>
    <trip id="342" depart="6156.00" from="171731099#2" to="-8813660"/>
    <trip id="343" depart="6174.00" from="191661301#1" to="140014378#1"/>
    <trip id="344" depart="6192.00" from="140014361#1" to="-171731099#1"/>
    <trip id="345" depart="6210.00" from="8844861#1" to="110295251#5"/>
    <trip id="346" depart="6228.00" from="-8838708#2" to="590855742#2.61"/>
    <trip id="347" depart="6246.00" from="-140014376#3" to="171719506#1.207"/>
    <trip id="348" depart="6264.00" from="-37430503#2" to="-171731099#3"/>
    <trip id="349" depart="6282.00" from="-8826695" to="-8819757#1"/>
    <trip id="350" depart="6300.00" from="171719498#0.237" to="8807620"/>
    <trip id="351" depart="6318.00" from="37430503#1" to="-8819757#1"/>
    <trip id="352" depart="6336.00" from="8816458#0" to="-232089990#6"/>
    <trip id="353" depart="6354.00" from="8826054#2" to="-8845638#0"/>
    <trip id="354" depart="6372.00" from="-8845748#0" to="8832548#3"/>
    <trip id="355" depart="6390.00" from="8837229#1" to="171719506#0"/>
    <trip id="356" depart="6408.00" from="8829294#6" to="-8831452#7"/>
    <trip id="357" depart="6426.00" from="8829294#1" to="131360792#1"/>
    <trip id="358" depart="6444.00" from="-37349748#0" to="8827796"/>
    <trip id="359" depart="6462.00" from="-8842334" to="140014363#2"/>
    <trip id="360" depart="6480.00" from="-8834798#0" to="-8837229#2"/>
    <trip id="361" depart="6498.00" from="8826054#0" to="8820674#0"/>
    <trip id="362" depart="6516.00" from="140014366#1" to="171719506#2.93"/>
    <trip id="363" depart="6534.00" from="-8826695" to="140014368#1"/>
    <trip id="364" depart="6552.00" from="8834798#6" to="8828668#1"/>
    <trip id="365" depart="6570.00" from="232089990#6" to="-8831452#4"/>
    <trip id="366" depart="6588.00" from="-8844712#0" to="-8826054#1"/>
    <trip id="367" depart="6606.00" from="140014368#0" to="144267617#0.156"/>
    <trip id="368" depart="6624.00" from="110295251#9" to="-8843496#0"/>
    <trip id="369" depart="6642.00" from="590855742#3.305" to="-140014376#4"/>
    <trip id="370" depart="6660.00" from="-8834653#1" to="140014368#0"/>
    <trip id="371" depart="6678.00" from="140014366#0" to="-8843698"/>
    <trip id="372" depart="6696.00" from="8837229#2" to="8819757#1"/>
    <trip id="373" depart="6714.00" from="-8845421#1" to="8844861#1"/>
    <trip id="374" depart="6732.00" from="117274076#5" to="8837229#0"/>
    <trip id="375" depart="6750.00" from="-8833293" to="-8845638#7"/>
    <trip id="376" depart="6768.00" from="232089990#3" to="-140014369"/>
    <trip id="377" depart="6786.00" from="590855742#1" to="8834798#0"/>
    <trip id="378" depart="6804.00" from="-233086787#0" to="171719506#2"/>
    <trip id="379" depart="6822.00" from="233079084" to="8828668#1"/>
    <trip id="380" depart="6840.00" from="171719506#3" to="590855741#0"/>
    <trip id="381" depart="6858.00" from="-8807614" to="-140014363#0"/>
    <trip id="382" depart="6876.00" from="110295251#7" to="171719519#5"/>
    <trip id="383" depart="6894.00" from="-8829257#3" to="8834653#0"/>
    <trip id="384" depart="6912.00" from="-8844861#0" to="-8829294#4"/>
    <trip id="385" depart="6930.00" from="8829257#0" to="8826054#1"/>
    <trip id="386" depart="6948.00" from="8831452#1" to="-8822095#0"/>
    <trip id="387" depart="6966.00" from="-8838708#2" to="-8844712#0"/>
    <trip id="388" depart="6984.00" from="-8820675" to="-8813380#6"/>
    <trip id="389" depart="7002.00" from="-8845153#1" to="8831452#7"/>
    <trip id="390" depart="7020.00" from="-140014365" to="117289064#5"/>
    <trip id="391" depart="7038.00" from="8845638#6" to="-8845153#1"/>
    <trip id="392" depart="7056.00" from="117274068" to="590855714#2"/>
    <trip id="393" depart="7074.00" from="-8834798#4" to="8831430"/>
    <trip id="394" depart="7092.00" from="140014361#1" to="8839621#3"/>
    <trip id="395" depart="7110.00" from="-8845421#0" to="-8828746#1"/>
    <trip id="396" depart="7128.00" from="140014359#0" to="590855759#9"/>
    <trip id="397" depart="7146.00" from="-8807608" to="8845638#7"/>
    <trip id="398" depart="7164.00" from="-8844861#7" to="8843698"/>
    <trip id="399" depart="7182.00" from="233086787#2" to="590855741#3.120"/>
    <trip id="400" depart="7200.00" from="-8832625#2" to="8842334"/>
    <trip id="401" depart="7218.00" from="8829294#6" to="-140014368#0"/>
    <trip id="402" depart="7236.00" from="8826054#2" to="8831452#4"/>
    <trip id="403" depart="7254.00" from="8829494#4" to="-8845153#1"/>
    <trip id="404" depart="7272.00" from="-8829494#0" to="590855741#0.238"/>
    <trip id="405" depart="7290.00" from="171719519#3" to="8813309"/>
    <trip id="406" depart="7308.00" from="171719498#1.56" to="8845748#1"/>
    <trip id="407" depart="7326.00" from="-140014359#1" to="-110295251#7"/>
    <trip id="408" depart="7344.00" from="-8826054#1" to="140014359#0"/>
    <trip id="409" depart="7362.00" from="110295251#1" to="590855742#3"/>
    <trip id="410" depart="7380.00" from="-8839621#2" to="8846015#2"/>