<?xml version="1.0" encoding="UTF-8"?>

<!-- generated on 09/27/20 19:06:31 by Eclipse SUMO netedit Version 1.6.0
<configuration xmlns:xsi="http://www.w3.org/2001/XMLSchema-instance" xsi:noNamespaceSchemaLocation="http://sumo.dlr.de/xsd/netconvertConfiguration.xsd">

    <input>
        <sumo-net-file value="C:\Users\Jon\OneDrive\Documents\Project1SUMO\.\braddock.net.xml"/>
    </input>

    <output>
        <output-file value="C:\Users\Jon\OneDrive\Documents\Project1SUMO\.\braddock.net.xml"/>
    </output>

    <processing>
        <geometry.min-radius.fix.railways value="false"/>
        <geometry.max-grade.fix value="false"/>
        <offset.disable-normalization value="true"/>
        <lefthand value="false"/>
    </processing>

    <junctions>
        <no-turnarounds value="true"/>
        <junctions.corner-detail value="5"/>
        <junctions.limit-turn-speed value="5.5"/>
        <rectangular-lane-cut value="false"/>
    </junctions>

    <pedestrian>
        <walkingareas value="false"/>
    </pedestrian>

    <netedit>
        <route-files value="C:\Users\Jon\OneDrive\Documents\Project1SUMO\braddock-flow.rou.xml"/>
    </netedit>

    <report>
        <aggregate-warnings value="5"/>
    </report>

</configuration>
-->

<routes xmlns:xsi="http://www.w3.org/2001/XMLSchema-instance" xsi:noNamespaceSchemaLocation="http://sumo.dlr.de/xsd/routes_file.xsd">
    <flow id="braddock_e_braddock_e" begin="0.00" color="yellow" end="7200.00" vehsPerHour="1389.96">
        <route edges="590855737#0 590855737#1 590855737#2 590855741#0 590855741#1 590855741#2 590855741#3 590855741#4 144267617#0 144267617#1 144267617#2 144267617#3 144267617#4 171719519#1 171719519#2 171719519#3 171719519#4 171719519#5 171719519#6 171719502#0" color="yellow"/>
    </flow>
    <flow id="twinbrook_n_braddock_w" begin="0.00" color="yellow" end="7200.00" vehsPerHour="284.99">
        <route edges="-8832605#1 -8832605#0 -590855713 -590855714#2 -590855714#1 590855738#0 590855738#1 590855738#2" color="yellow"/>
    </flow>
    <flow id="twinbrook_n_twinbrooke_n" begin="0.00" color="yellow" end="7200.00" vehsPerHour="20.00">
        <route edges="-8832605#1 -8832605#0 -590855713 -590855714#2 -590855714#1 -8832625#3 -8832625#2 -8832625#1 -8832625#0" color="yellow"/>
    </flow>
    <flow id="twinbrook_n_braddock_e" begin="0.00" color="yellow" end="7200.00" vehsPerHour="280">
	<route edges="-8832605#1 -8832605#0 -590855713 -590855714#2 -590855714#1 590855741#0 590855741#1 590855741#2 590855741#3 590855741#4 144267617#0 144267617#1 144267617#2 144267617#3 144267617#4 171719519#1 171719519#2 171719519#3 171719519#4 171719519#5 171719519#6 171719502#0" color="yellow"/>
    </flow>
    <flow id="twinbrook_s_braddock_e" begin="0.00" color="yellow" end="7200.00" vehsPerHour="30.00">
        <route edges="8832625#0 8832625#1 8832625#2 8832625#3 590855741#0 590855741#1 590855741#2 590855741#3 590855741#4 144267617#0 144267617#1 144267617#2 144267617#3 144267617#4 171719519#1 171719519#2 171719519#3 171719519#4 171719519#5 171719519#6 171719502#0" color="yellow"/>
    </flow>
    <flow id="twinbrook_s_braddock_w" begin="0.00" color="yellow" end="7200.00" vehsPerHour="30.00">
        <route edges="8832625#0 8832625#1 8832625#2 8832625#3 590855738#0 590855738#1 590855738#2" color="yellow"/>
    </flow>
    <flow id="twinbrook_s_twinbrooke_s" begin="0.00" color="yellow" end="7200.00" vehsPerHour="10.00">
        <route edges="8832625#0 8832625#1 8832625#2 8832625#3 590855714#1 590855714#2 590855713 8832605#0 8832605#1" color="yellow"/>
    </flow>
</routes>
